<?xml version="1.0" encoding="UTF-8"?>

<!-- generated on 2023-04-23 15:08:23 by Eclipse SUMO jtrrouter Version 1.16.0
<configuration xmlns:xsi="http://www.w3.org/2001/XMLSchema-instance" xsi:noNamespaceSchemaLocation="http://sumo.dlr.de/xsd/jtrrouterConfiguration.xsd">

    <input>
        <net-file value=".\SUMO_Input\net\Test4.net.xml"/>
        <route-files value=".\SUMO_Input\route\Test4.trip.xml"/>
        <turn-ratio-files value=".\SUMO_Input\route\Test4.turndefs.xml"/>
    </input>

    <output>
        <output-file value=".\SUMO_Input\route\Test4.rou.xml"/>
    </output>

    <processing>
        <accept-all-destinations value="true"/>
    </processing>

</configuration>
-->

<routes xmlns:xsi="http://www.w3.org/2001/XMLSchema-instance" xsi:noNamespaceSchemaLocation="http://sumo.dlr.de/xsd/routes_file.xsd">
    <vehicle id="0#0.0" depart="0.00">
        <route edges="1 6"/>
    </vehicle>
    <vehicle id="1#0.0" depart="0.00">
        <route edges="4 6"/>
    </vehicle>
    <vehicle id="2#0.0" depart="0.00">
        <route edges="5 2"/>
    </vehicle>
    <vehicle id="3#0.0" depart="0.00">
        <route edges="8 6"/>
    </vehicle>
    <vehicle id="0#0.1" depart="6.00">
        <route edges="1 3"/>
    </vehicle>
    <vehicle id="1#0.1" depart="6.00">
        <route edges="4 2"/>
    </vehicle>
    <vehicle id="2#0.1" depart="6.00">
        <route edges="5 7"/>
    </vehicle>
    <vehicle id="3#0.1" depart="6.00">
        <route edges="8 3"/>
    </vehicle>
    <vehicle id="0#0.2" depart="12.00">
        <route edges="1 3"/>
    </vehicle>
    <vehicle id="1#0.2" depart="12.00">
        <route edges="4 6"/>
    </vehicle>
    <vehicle id="2#0.2" depart="12.00">
        <route edges="5 2"/>
    </vehicle>
    <vehicle id="3#0.2" depart="12.00">
        <route edges="8 6"/>
    </vehicle>
    <vehicle id="0#0.3" depart="18.00">
        <route edges="1 3"/>
    </vehicle>
    <vehicle id="1#0.3" depart="18.00">
        <route edges="4 2"/>
    </vehicle>
    <vehicle id="2#0.3" depart="18.00">
        <route edges="5 7"/>
    </vehicle>
    <vehicle id="3#0.3" depart="18.00">
        <route edges="8 3"/>
    </vehicle>
    <vehicle id="0#0.4" depart="24.00">
        <route edges="1 3"/>
    </vehicle>
    <vehicle id="1#0.4" depart="24.00">
        <route edges="4 7"/>
    </vehicle>
    <vehicle id="2#0.4" depart="24.00">
        <route edges="5 7"/>
    </vehicle>
    <vehicle id="3#0.4" depart="24.00">
        <route edges="8 6"/>
    </vehicle>
    <vehicle id="0#0.5" depart="30.00">
        <route edges="1 3"/>
    </vehicle>
    <vehicle id="1#0.5" depart="30.00">
        <route edges="4 2"/>
    </vehicle>
    <vehicle id="2#0.5" depart="30.00">
        <route edges="5 7"/>
    </vehicle>
    <vehicle id="3#0.5" depart="30.00">
        <route edges="8 6"/>
    </vehicle>
    <vehicle id="0#0.6" depart="36.00">
        <route edges="1 7"/>
    </vehicle>
    <vehicle id="1#0.6" depart="36.00">
        <route edges="4 7"/>
    </vehicle>
    <vehicle id="2#0.6" depart="36.00">
        <route edges="5 7"/>
    </vehicle>
    <vehicle id="3#0.6" depart="36.00">
        <route edges="8 6"/>
    </vehicle>
    <vehicle id="0#0.7" depart="42.00">
        <route edges="1 3"/>
    </vehicle>
    <vehicle id="1#0.7" depart="42.00">
        <route edges="4 2"/>
    </vehicle>
    <vehicle id="2#0.7" depart="42.00">
        <route edges="5 2"/>
    </vehicle>
    <vehicle id="3#0.7" depart="42.00">
        <route edges="8 6"/>
    </vehicle>
    <vehicle id="0#0.8" depart="48.00">
        <route edges="1 6"/>
    </vehicle>
    <vehicle id="1#0.8" depart="48.00">
        <route edges="4 2"/>
    </vehicle>
    <vehicle id="2#0.8" depart="48.00">
        <route edges="5 7"/>
    </vehicle>
    <vehicle id="3#0.8" depart="48.00">
        <route edges="8 2"/>
    </vehicle>
    <vehicle id="0#0.9" depart="54.00">
        <route edges="1 3"/>
    </vehicle>
    <vehicle id="1#0.9" depart="54.00">
        <route edges="4 2"/>
    </vehicle>
    <vehicle id="2#0.9" depart="54.00">
        <route edges="5 3"/>
    </vehicle>
    <vehicle id="3#0.9" depart="54.00">
        <route edges="8 2"/>
    </vehicle>
    <vehicle id="0#0.10" depart="60.00">
        <route edges="1 3"/>
    </vehicle>
    <vehicle id="1#0.10" depart="60.00">
        <route edges="4 7"/>
    </vehicle>
    <vehicle id="2#0.10" depart="60.00">
        <route edges="5 3"/>
    </vehicle>
    <vehicle id="3#0.10" depart="60.00">
        <route edges="8 3"/>
    </vehicle>
    <vehicle id="0#0.11" depart="66.00">
        <route edges="1 3"/>
    </vehicle>
    <vehicle id="1#0.11" depart="66.00">
        <route edges="4 2"/>
    </vehicle>
    <vehicle id="2#0.11" depart="66.00">
        <route edges="5 3"/>
    </vehicle>
    <vehicle id="3#0.11" depart="66.00">
        <route edges="8 6"/>
    </vehicle>
    <vehicle id="0#0.12" depart="72.00">
        <route edges="1 3"/>
    </vehicle>
    <vehicle id="1#0.12" depart="72.00">
        <route edges="4 2"/>
    </vehicle>
    <vehicle id="2#0.12" depart="72.00">
        <route edges="5 7"/>
    </vehicle>
    <vehicle id="3#0.12" depart="72.00">
        <route edges="8 6"/>
    </vehicle>
    <vehicle id="0#0.13" depart="78.00">
        <route edges="1 3"/>
    </vehicle>
    <vehicle id="1#0.13" depart="78.00">
        <route edges="4 7"/>
    </vehicle>
    <vehicle id="2#0.13" depart="78.00">
        <route edges="5 7"/>
    </vehicle>
    <vehicle id="3#0.13" depart="78.00">
        <route edges="8 6"/>
    </vehicle>
    <vehicle id="0#0.14" depart="84.00">
        <route edges="1 3"/>
    </vehicle>
    <vehicle id="1#0.14" depart="84.00">
        <route edges="4 2"/>
    </vehicle>
    <vehicle id="2#0.14" depart="84.00">
        <route edges="5 3"/>
    </vehicle>
    <vehicle id="3#0.14" depart="84.00">
        <route edges="8 6"/>
    </vehicle>
    <vehicle id="0#0.15" depart="90.00">
        <route edges="1 3"/>
    </vehicle>
    <vehicle id="1#0.15" depart="90.00">
        <route edges="4 2"/>
    </vehicle>
    <vehicle id="2#0.15" depart="90.00">
        <route edges="5 3"/>
    </vehicle>
    <vehicle id="3#0.15" depart="90.00">
        <route edges="8 2"/>
    </vehicle>
    <vehicle id="0#0.16" depart="96.00">
        <route edges="1 3"/>
    </vehicle>
    <vehicle id="1#0.16" depart="96.00">
        <route edges="4 2"/>
    </vehicle>
    <vehicle id="2#0.16" depart="96.00">
        <route edges="5 7"/>
    </vehicle>
    <vehicle id="3#0.16" depart="96.00">
        <route edges="8 2"/>
    </vehicle>
    <vehicle id="0#0.17" depart="102.00">
        <route edges="1 3"/>
    </vehicle>
    <vehicle id="1#0.17" depart="102.00">
        <route edges="4 7"/>
    </vehicle>
    <vehicle id="2#0.17" depart="102.00">
        <route edges="5 7"/>
    </vehicle>
    <vehicle id="3#0.17" depart="102.00">
        <route edges="8 6"/>
    </vehicle>
    <vehicle id="0#0.18" depart="108.00">
        <route edges="1 3"/>
    </vehicle>
    <vehicle id="1#0.18" depart="108.00">
        <route edges="4 2"/>
    </vehicle>
    <vehicle id="2#0.18" depart="108.00">
        <route edges="5 3"/>
    </vehicle>
    <vehicle id="3#0.18" depart="108.00">
        <route edges="8 2"/>
    </vehicle>
    <vehicle id="0#0.19" depart="114.00">
        <route edges="1 3"/>
    </vehicle>
    <vehicle id="1#0.19" depart="114.00">
        <route edges="4 2"/>
    </vehicle>
    <vehicle id="2#0.19" depart="114.00">
        <route edges="5 7"/>
    </vehicle>
    <vehicle id="3#0.19" depart="114.00">
        <route edges="8 6"/>
    </vehicle>
    <vehicle id="0#0.20" depart="120.00">
        <route edges="1 3"/>
    </vehicle>
    <vehicle id="1#0.20" depart="120.00">
        <route edges="4 2"/>
    </vehicle>
    <vehicle id="2#0.20" depart="120.00">
        <route edges="5 7"/>
    </vehicle>
    <vehicle id="3#0.20" depart="120.00">
        <route edges="8 6"/>
    </vehicle>
    <vehicle id="0#0.21" depart="126.00">
        <route edges="1 3"/>
    </vehicle>
    <vehicle id="1#0.21" depart="126.00">
        <route edges="4 2"/>
    </vehicle>
    <vehicle id="2#0.21" depart="126.00">
        <route edges="5 7"/>
    </vehicle>
    <vehicle id="3#0.21" depart="126.00">
        <route edges="8 6"/>
    </vehicle>
    <vehicle id="0#0.22" depart="132.00">
        <route edges="1 3"/>
    </vehicle>
    <vehicle id="1#0.22" depart="132.00">
        <route edges="4 2"/>
    </vehicle>
    <vehicle id="2#0.22" depart="132.00">
        <route edges="5 7"/>
    </vehicle>
    <vehicle id="3#0.22" depart="132.00">
        <route edges="8 6"/>
    </vehicle>
    <vehicle id="0#0.23" depart="138.00">
        <route edges="1 3"/>
    </vehicle>
    <vehicle id="1#0.23" depart="138.00">
        <route edges="4 2"/>
    </vehicle>
    <vehicle id="2#0.23" depart="138.00">
        <route edges="5 3"/>
    </vehicle>
    <vehicle id="3#0.23" depart="138.00">
        <route edges="8 6"/>
    </vehicle>
    <vehicle id="0#0.24" depart="144.00">
        <route edges="1 3"/>
    </vehicle>
    <vehicle id="1#0.24" depart="144.00">
        <route edges="4 7"/>
    </vehicle>
    <vehicle id="2#0.24" depart="144.00">
        <route edges="5 7"/>
    </vehicle>
    <vehicle id="3#0.24" depart="144.00">
        <route edges="8 6"/>
    </vehicle>
    <vehicle id="0#0.25" depart="150.00">
        <route edges="1 6"/>
    </vehicle>
    <vehicle id="1#0.25" depart="150.00">
        <route edges="4 2"/>
    </vehicle>
    <vehicle id="2#0.25" depart="150.00">
        <route edges="5 7"/>
    </vehicle>
    <vehicle id="3#0.25" depart="150.00">
        <route edges="8 6"/>
    </vehicle>
    <vehicle id="0#0.26" depart="156.00">
        <route edges="1 7"/>
    </vehicle>
    <vehicle id="1#0.26" depart="156.00">
        <route edges="4 2"/>
    </vehicle>
    <vehicle id="2#0.26" depart="156.00">
        <route edges="5 7"/>
    </vehicle>
    <vehicle id="3#0.26" depart="156.00">
        <route edges="8 6"/>
    </vehicle>
    <vehicle id="0#0.27" depart="162.00">
        <route edges="1 3"/>
    </vehicle>
    <vehicle id="1#0.27" depart="162.00">
        <route edges="4 2"/>
    </vehicle>
    <vehicle id="2#0.27" depart="162.00">
        <route edges="5 7"/>
    </vehicle>
    <vehicle id="3#0.27" depart="162.00">
        <route edges="8 6"/>
    </vehicle>
    <vehicle id="0#0.28" depart="168.00">
        <route edges="1 6"/>
    </vehicle>
    <vehicle id="1#0.28" depart="168.00">
        <route edges="4 2"/>
    </vehicle>
    <vehicle id="2#0.28" depart="168.00">
        <route edges="5 7"/>
    </vehicle>
    <vehicle id="3#0.28" depart="168.00">
        <route edges="8 2"/>
    </vehicle>
    <vehicle id="0#0.29" depart="174.00">
        <route edges="1 6"/>
    </vehicle>
    <vehicle id="1#0.29" depart="174.00">
        <route edges="4 2"/>
    </vehicle>
    <vehicle id="2#0.29" depart="174.00">
        <route edges="5 7"/>
    </vehicle>
    <vehicle id="3#0.29" depart="174.00">
        <route edges="8 6"/>
    </vehicle>
    <vehicle id="0#0.30" depart="180.00">
        <route edges="1 3"/>
    </vehicle>
    <vehicle id="1#0.30" depart="180.00">
        <route edges="4 2"/>
    </vehicle>
    <vehicle id="2#0.30" depart="180.00">
        <route edges="5 7"/>
    </vehicle>
    <vehicle id="3#0.30" depart="180.00">
        <route edges="8 6"/>
    </vehicle>
    <vehicle id="0#0.31" depart="186.00">
        <route edges="1 7"/>
    </vehicle>
    <vehicle id="1#0.31" depart="186.00">
        <route edges="4 7"/>
    </vehicle>
    <vehicle id="2#0.31" depart="186.00">
        <route edges="5 3"/>
    </vehicle>
    <vehicle id="3#0.31" depart="186.00">
        <route edges="8 6"/>
    </vehicle>
    <vehicle id="0#0.32" depart="192.00">
        <route edges="1 3"/>
    </vehicle>
    <vehicle id="1#0.32" depart="192.00">
        <route edges="4 2"/>
    </vehicle>
    <vehicle id="2#0.32" depart="192.00">
        <route edges="5 7"/>
    </vehicle>
    <vehicle id="3#0.32" depart="192.00">
        <route edges="8 6"/>
    </vehicle>
    <vehicle id="0#0.33" depart="198.00">
        <route edges="1 3"/>
    </vehicle>
    <vehicle id="1#0.33" depart="198.00">
        <route edges="4 2"/>
    </vehicle>
    <vehicle id="2#0.33" depart="198.00">
        <route edges="5 7"/>
    </vehicle>
    <vehicle id="3#0.33" depart="198.00">
        <route edges="8 6"/>
    </vehicle>
    <vehicle id="0#0.34" depart="204.00">
        <route edges="1 3"/>
    </vehicle>
    <vehicle id="1#0.34" depart="204.00">
        <route edges="4 2"/>
    </vehicle>
    <vehicle id="2#0.34" depart="204.00">
        <route edges="5 7"/>
    </vehicle>
    <vehicle id="3#0.34" depart="204.00">
        <route edges="8 6"/>
    </vehicle>
    <vehicle id="0#0.35" depart="210.00">
        <route edges="1 6"/>
    </vehicle>
    <vehicle id="1#0.35" depart="210.00">
        <route edges="4 7"/>
    </vehicle>
    <vehicle id="2#0.35" depart="210.00">
        <route edges="5 7"/>
    </vehicle>
    <vehicle id="3#0.35" depart="210.00">
        <route edges="8 2"/>
    </vehicle>
    <vehicle id="0#0.36" depart="216.00">
        <route edges="1 7"/>
    </vehicle>
    <vehicle id="1#0.36" depart="216.00">
        <route edges="4 7"/>
    </vehicle>
    <vehicle id="2#0.36" depart="216.00">
        <route edges="5 7"/>
    </vehicle>
    <vehicle id="3#0.36" depart="216.00">
        <route edges="8 6"/>
    </vehicle>
    <vehicle id="0#0.37" depart="222.00">
        <route edges="1 3"/>
    </vehicle>
    <vehicle id="1#0.37" depart="222.00">
        <route edges="4 2"/>
    </vehicle>
    <vehicle id="2#0.37" depart="222.00">
        <route edges="5 7"/>
    </vehicle>
    <vehicle id="3#0.37" depart="222.00">
        <route edges="8 6"/>
    </vehicle>
    <vehicle id="0#0.38" depart="228.00">
        <route edges="1 3"/>
    </vehicle>
    <vehicle id="1#0.38" depart="228.00">
        <route edges="4 2"/>
    </vehicle>
    <vehicle id="2#0.38" depart="228.00">
        <route edges="5 7"/>
    </vehicle>
    <vehicle id="3#0.38" depart="228.00">
        <route edges="8 6"/>
    </vehicle>
    <vehicle id="0#0.39" depart="234.00">
        <route edges="1 3"/>
    </vehicle>
    <vehicle id="1#0.39" depart="234.00">
        <route edges="4 2"/>
    </vehicle>
    <vehicle id="2#0.39" depart="234.00">
        <route edges="5 7"/>
    </vehicle>
    <vehicle id="3#0.39" depart="234.00">
        <route edges="8 6"/>
    </vehicle>
    <vehicle id="0#0.40" depart="240.00">
        <route edges="1 3"/>
    </vehicle>
    <vehicle id="1#0.40" depart="240.00">
        <route edges="4 7"/>
    </vehicle>
    <vehicle id="2#0.40" depart="240.00">
        <route edges="5 7"/>
    </vehicle>
    <vehicle id="3#0.40" depart="240.00">
        <route edges="8 6"/>
    </vehicle>
    <vehicle id="0#0.41" depart="246.00">
        <route edges="1 7"/>
    </vehicle>
    <vehicle id="1#0.41" depart="246.00">
        <route edges="4 2"/>
    </vehicle>
    <vehicle id="2#0.41" depart="246.00">
        <route edges="5 7"/>
    </vehicle>
    <vehicle id="3#0.41" depart="246.00">
        <route edges="8 6"/>
    </vehicle>
    <vehicle id="0#0.42" depart="252.00">
        <route edges="1 3"/>
    </vehicle>
    <vehicle id="1#0.42" depart="252.00">
        <route edges="4 7"/>
    </vehicle>
    <vehicle id="2#0.42" depart="252.00">
        <route edges="5 7"/>
    </vehicle>
    <vehicle id="3#0.42" depart="252.00">
        <route edges="8 3"/>
    </vehicle>
    <vehicle id="0#0.43" depart="258.00">
        <route edges="1 3"/>
    </vehicle>
    <vehicle id="1#0.43" depart="258.00">
        <route edges="4 2"/>
    </vehicle>
    <vehicle id="2#0.43" depart="258.00">
        <route edges="5 7"/>
    </vehicle>
    <vehicle id="3#0.43" depart="258.00">
        <route edges="8 6"/>
    </vehicle>
    <vehicle id="0#0.44" depart="264.00">
        <route edges="1 3"/>
    </vehicle>
    <vehicle id="1#0.44" depart="264.00">
        <route edges="4 2"/>
    </vehicle>
    <vehicle id="2#0.44" depart="264.00">
        <route edges="5 7"/>
    </vehicle>
    <vehicle id="3#0.44" depart="264.00">
        <route edges="8 2"/>
    </vehicle>
    <vehicle id="0#0.45" depart="270.00">
        <route edges="1 3"/>
    </vehicle>
    <vehicle id="1#0.45" depart="270.00">
        <route edges="4 2"/>
    </vehicle>
    <vehicle id="2#0.45" depart="270.00">
        <route edges="5 7"/>
    </vehicle>
    <vehicle id="3#0.45" depart="270.00">
        <route edges="8 2"/>
    </vehicle>
    <vehicle id="0#0.46" depart="276.00">
        <route edges="1 3"/>
    </vehicle>
    <vehicle id="1#0.46" depart="276.00">
        <route edges="4 2"/>
    </vehicle>
    <vehicle id="2#0.46" depart="276.00">
        <route edges="5 3"/>
    </vehicle>
    <vehicle id="3#0.46" depart="276.00">
        <route edges="8 2"/>
    </vehicle>
    <vehicle id="0#0.47" depart="282.00">
        <route edges="1 7"/>
    </vehicle>
    <vehicle id="1#0.47" depart="282.00">
        <route edges="4 2"/>
    </vehicle>
    <vehicle id="2#0.47" depart="282.00">
        <route edges="5 3"/>
    </vehicle>
    <vehicle id="3#0.47" depart="282.00">
        <route edges="8 6"/>
    </vehicle>
    <vehicle id="0#0.48" depart="288.00">
        <route edges="1 3"/>
    </vehicle>
    <vehicle id="1#0.48" depart="288.00">
        <route edges="4 2"/>
    </vehicle>
    <vehicle id="2#0.48" depart="288.00">
        <route edges="5 3"/>
    </vehicle>
    <vehicle id="3#0.48" depart="288.00">
        <route edges="8 6"/>
    </vehicle>
    <vehicle id="0#0.49" depart="294.00">
        <route edges="1 3"/>
    </vehicle>
    <vehicle id="1#0.49" depart="294.00">
        <route edges="4 7"/>
    </vehicle>
    <vehicle id="2#0.49" depart="294.00">
        <route edges="5 7"/>
    </vehicle>
    <vehicle id="3#0.49" depart="294.00">
        <route edges="8 6"/>
    </vehicle>
    <vehicle id="0#0.50" depart="300.00">
        <route edges="1 3"/>
    </vehicle>
    <vehicle id="1#0.50" depart="300.00">
        <route edges="4 2"/>
    </vehicle>
    <vehicle id="2#0.50" depart="300.00">
        <route edges="5 7"/>
    </vehicle>
    <vehicle id="3#0.50" depart="300.00">
        <route edges="8 2"/>
    </vehicle>
    <vehicle id="0#0.51" depart="306.00">
        <route edges="1 6"/>
    </vehicle>
    <vehicle id="1#0.51" depart="306.00">
        <route edges="4 6"/>
    </vehicle>
    <vehicle id="2#0.51" depart="306.00">
        <route edges="5 7"/>
    </vehicle>
    <vehicle id="3#0.51" depart="306.00">
        <route edges="8 2"/>
    </vehicle>
    <vehicle id="0#0.52" depart="312.00">
        <route edges="1 3"/>
    </vehicle>
    <vehicle id="1#0.52" depart="312.00">
        <route edges="4 2"/>
    </vehicle>
    <vehicle id="2#0.52" depart="312.00">
        <route edges="5 7"/>
    </vehicle>
    <vehicle id="3#0.52" depart="312.00">
        <route edges="8 2"/>
    </vehicle>
    <vehicle id="0#0.53" depart="318.00">
        <route edges="1 3"/>
    </vehicle>
    <vehicle id="1#0.53" depart="318.00">
        <route edges="4 6"/>
    </vehicle>
    <vehicle id="2#0.53" depart="318.00">
        <route edges="5 7"/>
    </vehicle>
    <vehicle id="3#0.53" depart="318.00">
        <route edges="8 6"/>
    </vehicle>
    <vehicle id="0#0.54" depart="324.00">
        <route edges="1 3"/>
    </vehicle>
    <vehicle id="1#0.54" depart="324.00">
        <route edges="4 7"/>
    </vehicle>
    <vehicle id="2#0.54" depart="324.00">
        <route edges="5 7"/>
    </vehicle>
    <vehicle id="3#0.54" depart="324.00">
        <route edges="8 2"/>
    </vehicle>
    <vehicle id="0#0.55" depart="330.00">
        <route edges="1 3"/>
    </vehicle>
    <vehicle id="1#0.55" depart="330.00">
        <route edges="4 2"/>
    </vehicle>
    <vehicle id="2#0.55" depart="330.00">
        <route edges="5 7"/>
    </vehicle>
    <vehicle id="3#0.55" depart="330.00">
        <route edges="8 3"/>
    </vehicle>
    <vehicle id="0#0.56" depart="336.00">
        <route edges="1 3"/>
    </vehicle>
    <vehicle id="1#0.56" depart="336.00">
        <route edges="4 7"/>
    </vehicle>
    <vehicle id="2#0.56" depart="336.00">
        <route edges="5 7"/>
    </vehicle>
    <vehicle id="3#0.56" depart="336.00">
        <route edges="8 3"/>
    </vehicle>
    <vehicle id="0#0.57" depart="342.00">
        <route edges="1 7"/>
    </vehicle>
    <vehicle id="1#0.57" depart="342.00">
        <route edges="4 2"/>
    </vehicle>
    <vehicle id="2#0.57" depart="342.00">
        <route edges="5 3"/>
    </vehicle>
    <vehicle id="3#0.57" depart="342.00">
        <route edges="8 6"/>
    </vehicle>
    <vehicle id="0#0.58" depart="348.00">
        <route edges="1 3"/>
    </vehicle>
    <vehicle id="1#0.58" depart="348.00">
        <route edges="4 2"/>
    </vehicle>
    <vehicle id="2#0.58" depart="348.00">
        <route edges="5 7"/>
    </vehicle>
    <vehicle id="3#0.58" depart="348.00">
        <route edges="8 6"/>
    </vehicle>
    <vehicle id="0#0.59" depart="354.00">
        <route edges="1 6"/>
    </vehicle>
    <vehicle id="1#0.59" depart="354.00">
        <route edges="4 2"/>
    </vehicle>
    <vehicle id="2#0.59" depart="354.00">
        <route edges="5 7"/>
    </vehicle>
    <vehicle id="3#0.59" depart="354.00">
        <route edges="8 6"/>
    </vehicle>
    <vehicle id="0#0.60" depart="360.00">
        <route edges="1 3"/>
    </vehicle>
    <vehicle id="1#0.60" depart="360.00">
        <route edges="4 2"/>
    </vehicle>
    <vehicle id="2#0.60" depart="360.00">
        <route edges="5 7"/>
    </vehicle>
    <vehicle id="3#0.60" depart="360.00">
        <route edges="8 2"/>
    </vehicle>
    <vehicle id="0#0.61" depart="366.00">
        <route edges="1 3"/>
    </vehicle>
    <vehicle id="1#0.61" depart="366.00">
        <route edges="4 2"/>
    </vehicle>
    <vehicle id="2#0.61" depart="366.00">
        <route edges="5 7"/>
    </vehicle>
    <vehicle id="3#0.61" depart="366.00">
        <route edges="8 3"/>
    </vehicle>
    <vehicle id="0#0.62" depart="372.00">
        <route edges="1 3"/>
    </vehicle>
    <vehicle id="1#0.62" depart="372.00">
        <route edges="4 2"/>
    </vehicle>
    <vehicle id="2#0.62" depart="372.00">
        <route edges="5 2"/>
    </vehicle>
    <vehicle id="3#0.62" depart="372.00">
        <route edges="8 6"/>
    </vehicle>
    <vehicle id="0#0.63" depart="378.00">
        <route edges="1 3"/>
    </vehicle>
    <vehicle id="1#0.63" depart="378.00">
        <route edges="4 2"/>
    </vehicle>
    <vehicle id="2#0.63" depart="378.00">
        <route edges="5 7"/>
    </vehicle>
    <vehicle id="3#0.63" depart="378.00">
        <route edges="8 6"/>
    </vehicle>
    <vehicle id="0#0.64" depart="384.00">
        <route edges="1 6"/>
    </vehicle>
    <vehicle id="1#0.64" depart="384.00">
        <route edges="4 6"/>
    </vehicle>
    <vehicle id="2#0.64" depart="384.00">
        <route edges="5 7"/>
    </vehicle>
    <vehicle id="3#0.64" depart="384.00">
        <route edges="8 6"/>
    </vehicle>
    <vehicle id="0#0.65" depart="390.00">
        <route edges="1 3"/>
    </vehicle>
    <vehicle id="1#0.65" depart="390.00">
        <route edges="4 7"/>
    </vehicle>
    <vehicle id="2#0.65" depart="390.00">
        <route edges="5 3"/>
    </vehicle>
    <vehicle id="3#0.65" depart="390.00">
        <route edges="8 2"/>
    </vehicle>
    <vehicle id="0#0.66" depart="396.00">
        <route edges="1 3"/>
    </vehicle>
    <vehicle id="1#0.66" depart="396.00">
        <route edges="4 2"/>
    </vehicle>
    <vehicle id="2#0.66" depart="396.00">
        <route edges="5 7"/>
    </vehicle>
    <vehicle id="3#0.66" depart="396.00">
        <route edges="8 3"/>
    </vehicle>
    <vehicle id="0#0.67" depart="402.00">
        <route edges="1 7"/>
    </vehicle>
    <vehicle id="1#0.67" depart="402.00">
        <route edges="4 7"/>
    </vehicle>
    <vehicle id="2#0.67" depart="402.00">
        <route edges="5 7"/>
    </vehicle>
    <vehicle id="3#0.67" depart="402.00">
        <route edges="8 2"/>
    </vehicle>
    <vehicle id="0#0.68" depart="408.00">
        <route edges="1 7"/>
    </vehicle>
    <vehicle id="1#0.68" depart="408.00">
        <route edges="4 6"/>
    </vehicle>
    <vehicle id="2#0.68" depart="408.00">
        <route edges="5 2"/>
    </vehicle>
    <vehicle id="3#0.68" depart="408.00">
        <route edges="8 6"/>
    </vehicle>
    <vehicle id="0#0.69" depart="414.00">
        <route edges="1 7"/>
    </vehicle>
    <vehicle id="1#0.69" depart="414.00">
        <route edges="4 6"/>
    </vehicle>
    <vehicle id="2#0.69" depart="414.00">
        <route edges="5 7"/>
    </vehicle>
    <vehicle id="3#0.69" depart="414.00">
        <route edges="8 6"/>
    </vehicle>
    <vehicle id="0#0.70" depart="420.00">
        <route edges="1 3"/>
    </vehicle>
    <vehicle id="1#0.70" depart="420.00">
        <route edges="4 2"/>
    </vehicle>
    <vehicle id="2#0.70" depart="420.00">
        <route edges="5 7"/>
    </vehicle>
    <vehicle id="3#0.70" depart="420.00">
        <route edges="8 6"/>
    </vehicle>
    <vehicle id="0#0.71" depart="426.00">
        <route edges="1 3"/>
    </vehicle>
    <vehicle id="1#0.71" depart="426.00">
        <route edges="4 2"/>
    </vehicle>
    <vehicle id="2#0.71" depart="426.00">
        <route edges="5 7"/>
    </vehicle>
    <vehicle id="3#0.71" depart="426.00">
        <route edges="8 6"/>
    </vehicle>
    <vehicle id="0#0.72" depart="432.00">
        <route edges="1 7"/>
    </vehicle>
    <vehicle id="1#0.72" depart="432.00">
        <route edges="4 2"/>
    </vehicle>
    <vehicle id="2#0.72" depart="432.00">
        <route edges="5 7"/>
    </vehicle>
    <vehicle id="3#0.72" depart="432.00">
        <route edges="8 6"/>
    </vehicle>
    <vehicle id="0#0.73" depart="438.00">
        <route edges="1 3"/>
    </vehicle>
    <vehicle id="1#0.73" depart="438.00">
        <route edges="4 2"/>
    </vehicle>
    <vehicle id="2#0.73" depart="438.00">
        <route edges="5 7"/>
    </vehicle>
    <vehicle id="3#0.73" depart="438.00">
        <route edges="8 6"/>
    </vehicle>
    <vehicle id="0#0.74" depart="444.00">
        <route edges="1 3"/>
    </vehicle>
    <vehicle id="1#0.74" depart="444.00">
        <route edges="4 2"/>
    </vehicle>
    <vehicle id="2#0.74" depart="444.00">
        <route edges="5 7"/>
    </vehicle>
    <vehicle id="3#0.74" depart="444.00">
        <route edges="8 6"/>
    </vehicle>
    <vehicle id="0#0.75" depart="450.00">
        <route edges="1 7"/>
    </vehicle>
    <vehicle id="1#0.75" depart="450.00">
        <route edges="4 6"/>
    </vehicle>
    <vehicle id="2#0.75" depart="450.00">
        <route edges="5 7"/>
    </vehicle>
    <vehicle id="3#0.75" depart="450.00">
        <route edges="8 2"/>
    </vehicle>
    <vehicle id="0#0.76" depart="456.00">
        <route edges="1 3"/>
    </vehicle>
    <vehicle id="1#0.76" depart="456.00">
        <route edges="4 7"/>
    </vehicle>
    <vehicle id="2#0.76" depart="456.00">
        <route edges="5 7"/>
    </vehicle>
    <vehicle id="3#0.76" depart="456.00">
        <route edges="8 6"/>
    </vehicle>
    <vehicle id="0#0.77" depart="462.00">
        <route edges="1 3"/>
    </vehicle>
    <vehicle id="1#0.77" depart="462.00">
        <route edges="4 7"/>
    </vehicle>
    <vehicle id="2#0.77" depart="462.00">
        <route edges="5 7"/>
    </vehicle>
    <vehicle id="3#0.77" depart="462.00">
        <route edges="8 2"/>
    </vehicle>
    <vehicle id="0#0.78" depart="468.00">
        <route edges="1 7"/>
    </vehicle>
    <vehicle id="1#0.78" depart="468.00">
        <route edges="4 7"/>
    </vehicle>
    <vehicle id="2#0.78" depart="468.00">
        <route edges="5 3"/>
    </vehicle>
    <vehicle id="3#0.78" depart="468.00">
        <route edges="8 2"/>
    </vehicle>
    <vehicle id="0#0.79" depart="474.00">
        <route edges="1 3"/>
    </vehicle>
    <vehicle id="1#0.79" depart="474.00">
        <route edges="4 2"/>
    </vehicle>
    <vehicle id="2#0.79" depart="474.00">
        <route edges="5 2"/>
    </vehicle>
    <vehicle id="3#0.79" depart="474.00">
        <route edges="8 6"/>
    </vehicle>
    <vehicle id="0#0.80" depart="480.00">
        <route edges="1 3"/>
    </vehicle>
    <vehicle id="1#0.80" depart="480.00">
        <route edges="4 6"/>
    </vehicle>
    <vehicle id="2#0.80" depart="480.00">
        <route edges="5 7"/>
    </vehicle>
    <vehicle id="3#0.80" depart="480.00">
        <route edges="8 3"/>
    </vehicle>
    <vehicle id="0#0.81" depart="486.00">
        <route edges="1 6"/>
    </vehicle>
    <vehicle id="1#0.81" depart="486.00">
        <route edges="4 7"/>
    </vehicle>
    <vehicle id="2#0.81" depart="486.00">
        <route edges="5 7"/>
    </vehicle>
    <vehicle id="3#0.81" depart="486.00">
        <route edges="8 3"/>
    </vehicle>
    <vehicle id="0#0.82" depart="492.00">
        <route edges="1 3"/>
    </vehicle>
    <vehicle id="1#0.82" depart="492.00">
        <route edges="4 2"/>
    </vehicle>
    <vehicle id="2#0.82" depart="492.00">
        <route edges="5 7"/>
    </vehicle>
    <vehicle id="3#0.82" depart="492.00">
        <route edges="8 2"/>
    </vehicle>
    <vehicle id="0#0.83" depart="498.00">
        <route edges="1 3"/>
    </vehicle>
    <vehicle id="1#0.83" depart="498.00">
        <route edges="4 2"/>
    </vehicle>
    <vehicle id="2#0.83" depart="498.00">
        <route edges="5 3"/>
    </vehicle>
    <vehicle id="3#0.83" depart="498.00">
        <route edges="8 2"/>
    </vehicle>
    <vehicle id="0#0.84" depart="504.00">
        <route edges="1 3"/>
    </vehicle>
    <vehicle id="1#0.84" depart="504.00">
        <route edges="4 2"/>
    </vehicle>
    <vehicle id="2#0.84" depart="504.00">
        <route edges="5 7"/>
    </vehicle>
    <vehicle id="3#0.84" depart="504.00">
        <route edges="8 6"/>
    </vehicle>
    <vehicle id="0#0.85" depart="510.00">