<?xml version="1.0" encoding="UTF-8"?>

<!-- generated on 2023-04-09 17:17:57 by Eclipse SUMO jtrrouter Version 1.16.0
<configuration xmlns:xsi="http://www.w3.org/2001/XMLSchema-instance" xsi:noNamespaceSchemaLocation="http://sumo.dlr.de/xsd/jtrrouterConfiguration.xsd">

    <input>
        <net-file value=".\SUMO_Input\net\Test4.net.xml"/>
        <route-files value=".\SUMO_Input\route\Test4.trip.xml"/>
        <turn-ratio-files value=".\SUMO_Input\route\Test4.turndefs.xml"/>
    </input>

    <output>
        <output-file value=".\SUMO_Input\route\Test4.rou.xml"/>
    </output>

    <processing>
        <accept-all-destinations value="true"/>
    </processing>

</configuration>
-->

<routes xmlns:xsi="http://www.w3.org/2001/XMLSchema-instance" xsi:noNamespaceSchemaLocation="http://sumo.dlr.de/xsd/routes_file.xsd">
    <vehicle id="1#0.0" depart="0.00">
        <route edges="4 2 1 3"/>
    </vehicle>
    <vehicle id="2#0.0" depart="0.00">
        <route edges="5 7 8 6"/>
    </vehicle>
    <vehicle id="3#0.0" depart="0.00">
        <route edges="8 6 5 7"/>
    </vehicle>
    <vehicle id="1#0.1" depart="1.00">
        <route edges="4 2 1 6 5 7 8 3"/>
    </vehicle>
    <vehicle id="2#0.1" depart="1.00">
        <route edges="5 7 8 6"/>
    </vehicle>
    <vehicle id="3#0.1" depart="1.00">
        <route edges="8 6 5 3 4 2 1 7"/>
    </vehicle>
    <vehicle id="0#0.0" depart="2.00">
        <route edges="1 6 5 7 8 3 4 2"/>
    </vehicle>
    <vehicle id="1#0.2" depart="2.00">
        <route edges="4 2 1 3"/>
    </vehicle>
    <vehicle id="2#0.2" depart="2.00">
        <route edges="5 2 1 3 4 6"/>
    </vehicle>
    <vehicle id="3#0.2" depart="2.00">
        <route edges="8 6 5 7"/>
    </vehicle>
    <vehicle id="0#0.1" depart="3.00">
        <route edges="1 3 4 6 5 7 8 2"/>
    </vehicle>
    <vehicle id="1#0.3" depart="3.00">
        <route edges="4 2 1 3"/>
    </vehicle>
    <vehicle id="2#0.3" depart="3.00">
        <route edges="5 7 8 6"/>
    </vehicle>
    <vehicle id="3#0.3" depart="3.00">
        <route edges="8 6 5 3 4 7"/>
    </vehicle>
    <vehicle id="0#0.2" depart="4.00">
        <route edges="1 3 4 2"/>
    </vehicle>
    <vehicle id="0#0.3" depart="5.00">
        <route edges="1 6 5 3 4 2"/>
    </vehicle>
    <vehicle id="2#0.4" depart="5.00">
        <route edges="5 7 8 6"/>
    </vehicle>
    <vehicle id="3#0.4" depart="5.00">
        <route edges="8 2 1 3 4 6 5 7"/>
    </vehicle>
    <vehicle id="3#0.5" depart="6.00">
        <route edges="8 6 5 3 4 2 1 7"/>
    </vehicle>
    <vehicle id="0#0.4" depart="7.00">
        <route edges="1 3 4 7 8 6 5 2"/>
    </vehicle>
    <vehicle id="1#0.4" depart="7.00">
        <route edges="4 2 1 3"/>
    </vehicle>
    <vehicle id="2#0.5" depart="7.00">
        <route edges="5 3 4 2 1 6"/>
    </vehicle>
    <vehicle id="3#0.6" depart="7.00">
        <route edges="8 6 5 2 1 3 4 7"/>
    </vehicle>
    <vehicle id="0#0.5" depart="8.00">
        <route edges="1 3 4 2"/>
    </vehicle>
    <vehicle id="1#0.5" depart="8.00">
        <route edges="4 7 8 3"/>
    </vehicle>
    <vehicle id="2#0.6" depart="8.00">
        <route edges="5 3 4 2 1 7 8 6"/>
    </vehicle>
    <vehicle id="1#0.6" depart="9.00">
        <route edges="4 2 1 3"/>
    </vehicle>
    <vehicle id="2#0.7" depart="9.00">
        <route edges="5 7 8 2 1 3 4 6"/>
    </vehicle>
    <vehicle id="0#0.6" depart="10.00">
        <route edges="1 6 5 3 4 2"/>
    </vehicle>
    <vehicle id="1#0.7" depart="10.00">
        <route edges="4 2 1 6 5 3"/>
    </vehicle>
    <vehicle id="1#0.8" depart="11.00">
        <route edges="4 2 1 3"/>
    </vehicle>
    <vehicle id="3#0.7" depart="11.00">
        <route edges="8 6 5 7"/>
    </vehicle>
    <vehicle id="0#0.7" depart="12.00">
        <route edges="1 3 4 6 5 7 8 2"/>
    </vehicle>
    <vehicle id="1#0.9" depart="12.00">
        <route edges="4 2 1 3"/>
    </vehicle>
    <vehicle id="0#0.8" depart="13.00">
        <route edges="1 3 4 2"/>
    </vehicle>
    <vehicle id="2#0.8" depart="13.00">
        <route edges="5 7 8 2 1 6"/>
    </vehicle>
    <vehicle id="3#0.8" depart="13.00">
        <route edges="8 2 1 7"/>
    </vehicle>
    <vehicle id="0#0.9" depart="14.00">
        <route edges="1 3 4 6 5 7 8 2"/>
    </vehicle>
    <vehicle id="3#0.9" depart="14.00">
        <route edges="8 6 5 2 1 7"/>
    </vehicle>
    <vehicle id="0#0.10" depart="15.00">
        <route edges="1 3 4 6 5 2"/>
    </vehicle>
    <vehicle id="1#0.10" depart="15.00">
        <route edges="4 2 1 6 5 7 8 3"/>
    </vehicle>
    <vehicle id="2#0.9" depart="15.00">
        <route edges="5 3 4 6"/>
    </vehicle>
    <vehicle id="0#0.11" depart="16.00">
        <route edges="1 3 4 2"/>
    </vehicle>
    <vehicle id="1#0.11" depart="16.00">
        <route edges="4 7 8 6 5 3"/>
    </vehicle>
    <vehicle id="3#0.10" depart="16.00">
        <route edges="8 6 5 3 4 2 1 7"/>
    </vehicle>
    <vehicle id="3#0.11" depart="17.00">
        <route edges="8 6 5 3 4 2 1 7"/>
    </vehicle>
    <vehicle id="0#0.12" depart="18.00">
        <route edges="1 7 8 6 5 3 4 2"/>
    </vehicle>
    <vehicle id="1#0.12" depart="18.00">
        <route edges="4 2 1 3"/>
    </vehicle>
    <vehicle id="1#0.13" depart="19.00">
        <route edges="4 2 1 3"/>
    </vehicle>
    <vehicle id="2#0.10" depart="19.00">
        <route edges="5 7 8 2 1 3 4 6"/>
    </vehicle>
    <vehicle id="0#0.13" depart="20.00">
        <route edges="1 3 4 2"/>
    </vehicle>
    <vehicle id="1#0.14" depart="20.00">
        <route edges="4 2 1 3"/>
    </vehicle>
    <vehicle id="0#0.14" depart="21.00">
        <route edges="1 6 5 7 8 2"/>
    </vehicle>
    <vehicle id="1#0.15" depart="21.00">
        <route edges="4 2 1 3"/>
    </vehicle>
    <vehicle id="2#0.11" depart="21.00">
        <route edges="5 7 8 2 1 3 4 6"/>
    </vehicle>
    <vehicle id="3#0.12" depart="21.00">
        <route edges="8 3 4 7"/>
    </vehicle>
    <vehicle id="0#0.15" depart="22.00">
        <route edges="1 3 4 2"/>
    </vehicle>
    <vehicle id="1#0.16" depart="22.00">
        <route edges="4 2 1 6 5 3"/>
    </vehicle>
    <vehicle id="3#0.13" depart="22.00">
        <route edges="8 6 5 2 1 3 4 7"/>
    </vehicle>
    <vehicle id="0#0.16" depart="23.00">
        <route edges="1 3 4 2"/>
    </vehicle>
    <vehicle id="1#0.17" depart="23.00">
        <route edges="4 7 8 6 5 3"/>
    </vehicle>
    <vehicle id="2#0.12" depart="23.00">
        <route edges="5 7 8 2 1 6"/>
    </vehicle>
    <vehicle id="1#0.18" depart="24.00">
        <route edges="4 2 1 3"/>
    </vehicle>
    <vehicle id="2#0.13" depart="24.00">
        <route edges="5 7 8 6"/>
    </vehicle>
    <vehicle id="2#0.14" depart="25.00">
        <route edges="5 7 8 6"/>
    </vehicle>
    <vehicle id="3#0.14" depart="25.00">
        <route edges="8 6 5 3 4 7"/>
    </vehicle>
    <vehicle id="0#0.17" depart="27.00">
        <route edges="1 6 5 7 8 2"/>
    </vehicle>
    <vehicle id="1#0.19" depart="27.00">
        <route edges="4 2 1 7 8 3"/>
    </vehicle>
    <vehicle id="2#0.15" depart="27.00">
        <route edges="5 3 4 2 1 6"/>
    </vehicle>
    <vehicle id="3#0.15" depart="27.00">
        <route edges="8 6 5 3 4 2 1 7"/>
    </vehicle>
    <vehicle id="0#0.18" depart="28.00">
        <route edges="1 7 8 6 5 2"/>
    </vehicle>
    <vehicle id="3#0.16" depart="28.00">
        <route edges="8 6 5 7"/>
    </vehicle>
    <vehicle id="0#0.19" depart="29.00">
        <route edges="1 3 4 6 5 7 8 2"/>
    </vehicle>
    <vehicle id="1#0.20" depart="29.00">
        <route edges="4 7 8 2 1 6 5 3"/>
    </vehicle>
    <vehicle id="2#0.16" depart="29.00">
        <route edges="5 7 8 6"/>
    </vehicle>
    <vehicle id="0#0.20" depart="30.00">
        <route edges="1 3 4 2"/>
    </vehicle>
    <vehicle id="1#0.21" depart="30.00">
        <route edges="4 7 8 6 5 3"/>
    </vehicle>
    <vehicle id="2#0.17" depart="30.00">
        <route edges="5 7 8 6"/>
    </vehicle>
    <vehicle id="0#0.21" depart="31.00">
        <route edges="1 3 4 2"/>
    </vehicle>
    <vehicle id="1#0.22" depart="31.00">
        <route edges="4 2 1 3"/>
    </vehicle>
    <vehicle id="2#0.18" depart="31.00">
        <route edges="5 3 4 2 1 6"/>
    </vehicle>
    <vehicle id="3#0.17" depart="31.00">
        <route edges="8 6 5 7"/>
    </vehicle>
    <vehicle id="1#0.23" depart="32.00">
        <route edges="4 2 1 3"/>
    </vehicle>
    <vehicle id="2#0.19" depart="32.00">
        <route edges="5 7 8 6"/>
    </vehicle>
    <vehicle id="0#0.22" depart="33.00">
        <route edges="1 6 5 7 8 3 4 2"/>
    </vehicle>
    <vehicle id="1#0.24" depart="33.00">
        <route edges="4 2 1 3"/>
    </vehicle>
    <vehicle id="2#0.20" depart="33.00">
        <route edges="5 7 8 2 1 3 4 6"/>
    </vehicle>
    <vehicle id="1#0.25" depart="34.00">
        <route edges="4 7 8 6 5 3"/>
    </vehicle>
    <vehicle id="2#0.21" depart="34.00">
        <route edges="5 2 1 3 4 6"/>
    </vehicle>
    <vehicle id="3#0.18" depart="34.00">
        <route edges="8 6 5 3 4 2 1 7"/>
    </vehicle>
    <vehicle id="0#0.23" depart="35.00">
        <route edges="1 3 4 2"/>
    </vehicle>
    <vehicle id="2#0.22" depart="35.00">
        <route edges="5 2 1 3 4 7 8 6"/>
    </vehicle>
    <vehicle id="3#0.19" depart="36.00">
        <route edges="8 6 5 7"/>
    </vehicle>
    <vehicle id="0#0.24" depart="37.00">
        <route edges="1 3 4 2"/>
    </vehicle>
    <vehicle id="1#0.26" depart="37.00">
        <route edges="4 6 5 7 8 3"/>
    </vehicle>
    <vehicle id="2#0.23" depart="37.00">
        <route edges="5 2 1 7 8 6"/>
    </vehicle>
    <vehicle id="3#0.20" depart="37.00">
        <route edges="8 6 5 7"/>
    </vehicle>
    <vehicle id="0#0.25" depart="38.00">
        <route edges="1 3 4 2"/>
    </vehicle>
    <vehicle id="2#0.24" depart="38.00">
        <route edges="5 7 8 6"/>
    </vehicle>
    <vehicle id="0#0.26" depart="39.00">
        <route edges="1 6 5 7 8 3 4 2"/>
    </vehicle>
    <vehicle id="1#0.27" depart="39.00">
        <route edges="4 2 1 3"/>
    </vehicle>
    <vehicle id="2#0.25" depart="39.00">
        <route edges="5 2 1 3 4 6"/>
    </vehicle>
    <vehicle id="3#0.21" depart="39.00">
        <route edges="8 6 5 7"/>
    </vehicle>
    <vehicle id="0#0.27" depart="40.00">
        <route edges="1 3 4 2"/>
    </vehicle>
    <vehicle id="1#0.28" depart="40.00">
        <route edges="4 2 1 3"/>
    </vehicle>
    <vehicle id="3#0.22" depart="40.00">
        <route edges="8 6 5 7"/>
    </vehicle>
    <vehicle id="1#0.29" depart="41.00">
        <route edges="4 6 5 7 8 3"/>
    </vehicle>
    <vehicle id="3#0.23" depart="41.00">
        <route edges="8 3 4 2 1 6 5 7"/>
    </vehicle>
    <vehicle id="0#0.28" depart="42.00">
        <route edges="1 3 4 6 5 7 8 2"/>
    </vehicle>
    <vehicle id="1#0.30" depart="42.00">
        <route edges="4 2 1 3"/>
    </vehicle>
    <vehicle id="2#0.26" depart="42.00">
        <route edges="5 7 8 2 1 3 4 6"/>
    </vehicle>
    <vehicle id="0#0.29" depart="43.00">
        <route edges="1 3 4 2"/>
    </vehicle>
    <vehicle id="1#0.31" depart="43.00">
        <route edges="4 6 5 7 8 2 1 3"/>
    </vehicle>
    <vehicle id="0#0.30" depart="44.00">
        <route edges="1 6 5 7 8 2"/>
    </vehicle>
    <vehicle id="1#0.32" depart="44.00">
        <route edges="4 2 1 3"/>
    </vehicle>
    <vehicle id="2#0.27" depart="44.00">
        <route edges="5 7 8 6"/>
    </vehicle>
    <vehicle id="3#0.24" depart="44.00">
        <route edges="8 6 5 7"/>
    </vehicle>
    <vehicle id="0#0.31" depart="45.00">
        <route edges="1 3 4 6 5 7 8 2"/>
    </vehicle>
    <vehicle id="1#0.33" depart="45.00">
        <route edges="4 6 5 7 8 2 1 3"/>
    </vehicle>
    <vehicle id="2#0.28" depart="45.00">
        <route edges="5 2 1 6"/>
    </vehicle>
    <vehicle id="3#0.25" depart="45.00">
        <route edges="8 6 5 7"/>
    </vehicle>
    <vehicle id="0#0.32" depart="46.00">
        <route edges="1 3 4 2"/>
    </vehicle>
    <vehicle id="2#0.29" depart="46.00">
        <route edges="5 7 8 6"/>
    </vehicle>
    <vehicle id="1#0.34" depart="47.00">
        <route edges="4 6 5 3"/>
    </vehicle>
    <vehicle id="3#0.26" depart="47.00">
        <route edges="8 2 1 3 4 7"/>
    </vehicle>
    <vehicle id="0#0.33" depart="48.00">
        <route edges="1 6 5 2"/>
    </vehicle>
    <vehicle id="1#0.35" depart="48.00">
        <route edges="4 2 1 6 5 3"/>
    </vehicle>
    <vehicle id="2#0.30" depart="48.00">
        <route edges="5 2 1 3 4 6"/>
    </vehicle>
    <vehicle id="3#0.27" depart="48.00">
        <route edges="8 2 1 3 4 6 5 7"/>
    </vehicle>
    <vehicle id="1#0.36" depart="49.00">
        <route edges="4 2 1 3"/>
    </vehicle>
    <vehicle id="2#0.31" depart="49.00">
        <route edges="5 7 8 6"/>
    </vehicle>
    <vehicle id="1#0.37" depart="50.00">
        <route edges="4 2 1 3"/>
    </vehicle>
    <vehicle id="2#0.32" depart="50.00">
        <route edges="5 3 4 2 1 7 8 6"/>
    </vehicle>
    <vehicle id="3#0.28" depart="50.00">
        <route edges="8 6 5 3 4 2 1 7"/>
    </vehicle>
    <vehicle id="0#0.34" depart="51.00">
        <route edges="1 3 4 2"/>
    </vehicle>
    <vehicle id="3#0.29" depart="51.00">
        <route edges="8 3 4 2 1 6 5 7"/>
    </vehicle>
    <vehicle id="1#0.38" depart="52.00">
        <route edges="4 7 8 6 5 3"/>
    </vehicle>
    <vehicle id="2#0.33" depart="52.00">
        <route edges="5 7 8 6"/>
    </vehicle>
    <vehicle id="3#0.30" depart="52.00">
        <route edges="8 6 5 3 4 7"/>
    </vehicle>
    <vehicle id="1#0.39" depart="53.00">
        <route edges="4 2 1 7 8 6 5 3"/>
    </vehicle>
    <vehicle id="2#0.34" depart="53.00">
        <route edges="5 7 8 6"/>
    </vehicle>
    <vehicle id="3#0.31" depart="53.00">
        <route edges="8 3 4 7"/>
    </vehicle>
    <vehicle id="1#0.40" depart="54.00">
        <route edges="4 6 5 7 8 2 1 3"/>
    </vehicle>
    <vehicle id="2#0.35" depart="54.00">
        <route edges="5 3 4 2 1 7 8 6"/>
    </vehicle>
    <vehicle id="3#0.32" depart="54.00">
        <route edges="8 6 5 3 4 2 1 7"/>
    </vehicle>
    <vehicle id="0#0.35" depart="55.00">
        <route edges="1 7 8 2"/>
    </vehicle>
    <vehicle id="1#0.41" depart="55.00">
        <route edges="4 2 1 7 8 3"/>
    </vehicle>
    <vehicle id="2#0.36" depart="55.00">
        <route edges="5 3 4 2 1 6"/>
    </vehicle>
    <vehicle id="3#0.33" depart="55.00">
        <route edges="8 6 5 3 4 2 1 7"/>
    </vehicle>
    <vehicle id="0#0.36" depart="56.00">
        <route edges="1 3 4 2"/>
    </vehicle>
    <vehicle id="2#0.37" depart="56.00">
        <route edges="5 2 1 3 4 6"/>
    </vehicle>
    <vehicle id="0#0.37" depart="57.00">
        <route edges="1 3 4 2"/>
    </vehicle>
    <vehicle id="3#0.34" depart="57.00">
        <route edges="8 2 1 3 4 6 5 7"/>
    </vehicle>
    <vehicle id="0#0.38" depart="58.00">
        <route edges="1 3 4 2"/>
    </vehicle>
    <vehicle id="1#0.42" depart="58.00">
        <route edges="4 2 1 3"/>
    </vehicle>
    <vehicle id="2#0.38" depart="58.00">
        <route edges="5 3 4 6"/>
    </vehicle>
    <vehicle id="3#0.35" depart="58.00">
        <route edges="8 6 5 3 4 2 1 7"/>
    </vehicle>
    <vehicle id="1#0.43" depart="59.00">
        <route edges="4 2 1 7 8 6 5 3"/>
    </vehicle>
    <vehicle id="2#0.39" depart="59.00">
        <route edges="5 2 1 3 4 6"/>
    </vehicle>
    <vehicle id="0#0.39" depart="60.00">
        <route edges="1 3 4 7 8 6 5 2"/>
    </vehicle>
    <vehicle id="1#0.44" depart="60.00">
        <route edges="4 2 1 3"/>
    </vehicle>
    <vehicle id="3#0.36" depart="60.00">
        <route edges="8 6 5 3 4 2 1 7"/>
    </vehicle>
    <vehicle id="0#0.40" depart="61.00">
        <route edges="1 3 4 2"/>
    </vehicle>
    <vehicle id="2#0.40" depart="61.00">
        <route edges="5 3 4 2 1 7 8 6"/>
    </vehicle>
    <vehicle id="0#0.41" depart="62.00">
        <route edges="1 3 4 7 8 6 5 2"/>
    </vehicle>
    <vehicle id="1#0.45" depart="62.00">
        <route edges="4 2 1 3"/>
    </vehicle>
    <vehicle id="2#0.41" depart="62.00">
        <route edges="5 7 8 6"/>
    </vehicle>
    <vehicle id="0#0.42" depart="63.00">
        <route edges="1 3 4 2"/>
    </vehicle>
    <vehicle id="1#0.46" depart="63.00">
        <route edges="4 2 1 3"/>
    </vehicle>
    <vehicle id="0#0.43" depart="64.00">
        <route edges="1 3 4 2"/>
    </vehicle>
    <vehicle id="1#0.47" depart="64.00">
        <route edges="4 7 8 6 5 3"/>
    </vehicle>
    <vehicle id="3#0.37" depart="64.00">
        <route edges="8 6 5 3 4 2 1 7"/>
    </vehicle>
    <vehicle id="0#0.44" depart="65.00">
        <route edges="1 3 4 2"/>
    </vehicle>
    <vehicle id="1#0.48" depart="65.00">
        <route edges="4 2 1 3"/>
    </vehicle>
    <vehicle id="2#0.42" depart="65.00">
        <route edges="5 7 8 2 1 3 4 6"/>
    </vehicle>
    <vehicle id="2#0.43" depart="66.00">
        <route edges="5 7 8 6"/>
    </vehicle>
    <vehicle id="0#0.45" depart="67.00">
        <route edges="1 3 4 2"/>
    </vehicle>
    <vehicle id="1#0.49" depart="67.00">
        <route edges="4 6 5 7 8 3"/>
    </vehicle>
    <vehicle id="3#0.38" depart="67.00">
        <route edges="8 6 5 3 4 2 1 7"/>
    </vehicle>
    <vehicle id="0#0.46" depart="68.00">
        <route edges="1 7 8 3 4 2"/>
    </vehicle>
    <vehicle id="3#0.39" depart="69.00">
        <route edges="8 6 5 7"/>
    </vehicle>
    <vehicle id="0#0.47" depart="70.00">
        <route edges="1 3 4 2"/>
    </vehicle>
    <vehicle id="0#0.48" depart="71.00">
        <route edges="1 6 5 7 8 2"/>
    </vehicle>
    <vehicle id="1#0.50" depart="71.00">
        <route edges="4 7 8 6 5 3"/>
    </vehicle>
    <vehicle id="3#0.40" depart="71.00">
        <route edges="8 6 5 7"/>
    </vehicle>
    <vehicle id="0#0.49" depart="72.00">
        <route edges="1 3 4 6 5 7 8 2"/>
    </vehicle>
    <vehicle id="3#0.41" depart="72.00">
        <route edges="8 6 5 7"/>
    </vehicle>
    <vehicle id="0#0.50" depart="73.00">
        <route edges="1 3 4 2"/>
    </vehicle>
    <vehicle id="2#0.44" depart="73.00">
        <route edges="5 7 8 6"/>
    </vehicle>
    <vehicle id="3#0.42" depart="73.00">
        <route edges="8 2 1 6 5 7"/>
    </vehicle>
    <vehicle id="0#0.51" depart="74.00">
        <route edges="1 3 4 2"/>
    </vehicle>
    <vehicle id="1#0.51" depart="74.00">
        <route edges="4 7 8 3"/>
    </vehicle>
    <vehicle id="2#0.45" depart="74.00">
        <route edges="5 7 8 6"/>
    </vehicle>
    <vehicle id="3#0.43" depart="74.00">
        <route edges="8 6 5 3 4 2 1 7"/>
    </vehicle>
    <vehicle id="0#0.52" depart="75.00">
        <route edges="1 3 4 2"/>
    </vehicle>
    <vehicle id="1#0.52" depart="75.00">
        <route edges="4 6 5 7 8 3"/>
    </vehicle>
    <vehicle id="3#0.44" depart="75.00">
        <route edges="8 3 4 2 1 7"/>
    </vehicle>
    <vehicle id="0#0.53" depart="76.00">
        <route edges="1 6 5 7 8 2"/>
    </vehicle>
    <vehicle id="3#0.45" depart="76.00">
        <route edges="8 2 1 3 4 6 5 7"/>
    </vehicle>
    <vehicle id="0#0.54" depart="77.00">
        <route edges="1 3 4 2"/>
    </vehicle>
    <vehicle id="3#0.46" depart="77.00">
        <route edges="8 2 1 3 4 6 5 7"/>
    </vehicle>
    <vehicle id="2#0.46" depart="78.00">
        <route edges="5 7 8 2 1 3 4 6"/>
    </vehicle>
    <vehicle id="3#0.47" depart="78.00">
        <route edges="8 6 5 2 1 3 4 7"/>
    </vehicle>
    <vehicle id="0#0.55" depart="79.00">
        <route edges="1 3 4 2"/>
    </vehicle>
    <vehicle id="2#0.47" depart="79.00">
        <route edges="5 7 8 6"/>
    </vehicle>
    <vehicle id="0#0.56" depart="80.00">
        <route edges="1 3 4 2"/>
    </vehicle>
    <vehicle id="1#0.53" depart="80.00">
        <route edges="4 7 8 6 5 2 1 3"/>
    </vehicle>
    <vehicle id="3#0.48" depart="80.00">
        <route edges="8 2 1 3 4 7"/>
    </vehicle>
    <vehicle id="0#0.57" depart="81.00">
        <route edges="1 3 4 2"/>
    </vehicle>
    <vehicle id="1#0.54" depart="81.00">
        <route edges="4 2 1 3"/>
    </vehicle>
    <vehicle id="2#0.48" depart="81.00">
        <route edges="5 7 8 2 1 3 4 6"/>
    </vehicle>
    <vehicle id="3#0.49" depart="81.00">
        <route edges="8 6 5 7"/>
    </vehicle>
    <vehicle id="1#0.55" depart="82.00">
        <route edges="4 2 1 3"/>
    </vehicle>
    <vehicle id="3#0.50" depart="82.00">
        <route edges="8 6 5 7"/>
    </vehicle>
    <vehicle id="0#0.58" depart="83.00">
        <route edges="1 3 4 6 5 2"/>
    </vehicle>
    <vehicle id="1#0.56" depart="83.00">
        <route edges="4 7 8 2 1 3"/>
    </vehicle>
    <vehicle id="2#0.49" depart="83.00">
        <route edges="5 3 4 7 8 6"/>
    </vehicle>
    <vehicle id="3#0.51" depart="83.00">
        <route edges="8 6 5 7"/>
    </vehicle>
    <vehicle id="0#0.59" depart="84.00">
        <route edges="1 3 4 2"/>
    </vehicle>
    <vehicle id="1#0.57" depart="84.00">
        <route edges="4 2 1 3"/>
    </vehicle>
    <vehicle id="3#0.52" depart="84.00">
        <route edges="8 6 5 3 4 2 1 7"/>
    </vehicle>
    <vehicle id="0#0.60" depart="85.00">
        <route edges="1 3 4 2"/>
    </vehicle>
    <vehicle id="1#0.58" depart="85.00">
        <route edges="4 2 1 6 5 3"/>
    </vehicle>
    <vehicle id="2#0.50" depart="85.00">
        <route edges="5 3 4 6"/>
    </vehicle>
    <vehicle id="0#0.61" depart="86.00">
        <route edges="1 3 4 2"/>
    </vehicle>
    <vehicle id="1#0.59" depart="87.00">
        <route edges="4 2 1 6 5 7 8 3"/>
    </vehicle>
    <vehicle id="0#0.62" depart="88.00">
        <route edges="1 3 4 6 5 7 8 2"/>
    </vehicle>
    <vehicle id="3#0.53" depart="88.00">
        <route edges="8 6 5 2 1 3 4 7"/>
    </vehicle>
    <vehicle id="0#0.63" depart="89.00">
        <route edges="1 3 4 2"/>
    </vehicle>
    <vehicle id="1#0.60" depart="89.00">
        <route edges="4 2 1 3"/>
    </vehicle>
    <vehicle id="2#0.51" depart="89.00">
        <route edges="5 7 8 6"/>
    </vehicle>
    <vehicle id="3#0.54" depart="89.00">
        <route edges="8 6 5 3 4 2 1 7"/>
    </vehicle>
    <vehicle id="0#0.64" depart="90.00">
        <route edges="1 6 5 7 8 2"/>
    </vehicle>
    <vehicle id="2#0.52" depart="90.00">
        <route edges="5 7 8 6"/>
    </vehicle>
    <vehicle id="3#0.55" depart="90.00">
        <route edges="8 6 5 7"/>
    </vehicle>
    <vehicle id="1#0.61" depart="91.00">
        <route edges="4 2 1 3"/>
    </vehicle>
    <vehicle id="2#0.53" depart="91.00">
        <route edges="5 7 8 6"/>
    </vehicle>
    <vehicle id="3#0.56" depart="91.00">
        <route edges="8 6 5 7"/>
    </vehicle>
    <vehicle id="0#0.65" depart="92.00">
        <route edges="1 3 4 2"/>
    </vehicle>
    <vehicle id="1#0.62" depart="92.00">
        <route edges="4 2 1 3"/>
    </vehicle>
    <vehicle id="2#0.54" depart="92.00">
        <route edges="5 2 1 7 8 6"/>
    </vehicle>
    <vehicle id="3#0.57" depart="92.00">
        <route edges="8 6 5 7"/>
    </vehicle>
    <vehicle id="0#0.66" depart="93.00">
        <route edges="1 3 4 2"/>
    </vehicle>
    <vehicle id="1#0.63" depart="93.00">
        <route edges="4 2 1 3"/>
    </vehicle>
    <vehicle id="3#0.58" depart="93.00">
        <route edges="8 6 5 7"/>
    </vehicle>
    <vehicle id="0#0.67" depart="94.00">
        <route edges="1 7 8 6 5 2"/>
    </vehicle>
    <vehicle id="2#0.55" depart="94.00">
        <route edges="5 7 8 2 1 3 4 6"/>
    </vehicle>
    <vehicle id="3#0.59" depart="94.00">
        <route edges="8 6 5 7"/>
    </vehicle>
    <vehicle id="2#0.56" depart="95.00">
        <route edges="5 3 4 7 8 6"/>
    </vehicle>
    <vehicle id="3#0.60" depart="95.00">
        <route edges="8 6 5 2 1 3 4 7"/>
    </vehicle>
    <vehicle id="0#0.68" depart="96.00">
        <route edges="1 6 5 7 8 3 4 2"/>
    </vehicle>
    <vehicle id="2#0.57" depart="96.00">
        <route edges="5 7 8 2 1 3 4 6"/>
    </vehicle>
    <vehicle id="1#0.64" depart="97.00">
        <route edges="4 2 1 3"/>
    </vehicle>
    <vehicle id="2#0.58" depart="97.00">
        <route edges="5 3 4 6"/>
    </vehicle>
    <vehicle id="3#0.61" depart="97.00">
        <route edges="8 2 1 3 4 7"/>
    </vehicle>
    <vehicle id="0#0.69" depart="98.00">
        <route edges="1 3 4 2"/>
    </vehicle>
    <vehicle id="1#0.65" depart="98.00">
        <route edges="4 2 1 3"/>
    </vehicle>
    <vehicle id="3#0.62" depart="98.00">
        <route edges="8 6 5 3 4 2 1 7"/>
    </vehicle>
    <vehicle id="0#0.70" depart="99.00">
        <route edges="1 3 4 6 5 2"/>
    </vehicle>
    <vehicle id="3#0.63" depart="99.00">
        <route edges="8 3 4 7"/>
    </vehicle>
    <vehicle id="0#0.71" depart="101.00">
        <route edges="1 3 4 2"/>
    </vehicle>
    <vehicle id="3#0.64" depart="101.00">
        <route edges="8 3 4 7"/>
    </vehicle>
    <vehicle id="1#0.66" depart="102.00">
        <route edges="4 7 8 6 5 2 1 3"/>
    </vehicle>
    <vehicle id="2#0.59" depart="102.00">
        <route edges="5 3 4 6"/>
    </vehicle>
    <vehicle id="3#0.65" depart="102.00">
        <route edges="8 6 5 7"/>
    </vehicle>
    <vehicle id="0#0.72" depart="103.00">
        <route edges="1 3 4 2"/>
    </vehicle>
    <vehicle id="1#0.67" depart="103.00">
        <route edges="4 2 1 3"/>
    </vehicle>
    <vehicle id="2#0.60" depart="103.00">
        <route edges="5 7 8 6"/>
    </vehicle>
    <vehicle id="1#0.68" depart="104.00">
        <route edges="4 2 1 3"/>
    </vehicle>
    <vehicle id="2#0.61" depart="104.00">
        <route edges="5 7 8 6"/>
    </vehicle>
    <vehicle id="3#0.66" depart="104.00">
        <route edges="8 2 1 3 4 6 5 7"/>
    </vehicle>
    <vehicle id="0#0.73" depart="105.00">
        <route edges="1 3 4 2"/>
    </vehicle>
    <vehicle id="2#0.62" depart="105.00">
        <route edges="5 7 8 2 1 6"/>
    </vehicle>
    <vehicle id="3#0.67" depart="105.00">
        <route edges="8 2 1 3 4 6 5 7"/>
    </vehicle>
    <vehicle id="0#0.74" depart="106.00">
        <route edges="1 3 4 2"/>
    </vehicle>
    <vehicle id="3#0.68" depart="106.00">
        <route edges="8 6 5 7"/>
    </vehicle>
    <vehicle id="0#0.75" depart="107.00">
        <route edges="1 3 4 2"/>
    </vehicle>
    <vehicle id="1#0.69" depart="107.00">
        <route edges="4 6 5 7 8 3"/>
    </vehicle>
    <vehicle id="2#0.63" depart="107.00">
        <route edges="5 2 1 3 4 6"/>
    </vehicle>
    <vehicle id="3#0.69" depart="107.00">
        <route edges="8 6 5 7"/>
    </vehicle>
    <vehicle id="1#0.70" depart="108.00">
        <route edges="4 6 5 7 8 2 1 3"/>
    </vehicle>
    <vehicle id="2#0.64" depart="108.00">
        <route edges="5 7 8 6"/>
    </vehicle>
    <vehicle id="3#0.70" depart="108.00">
        <route edges="8 3 4 6 5 2 1 7"/>
    </vehicle>
    <vehicle id="0#0.76" depart="109.00">
        <route edges="1 3 4 6 5 7 8 2"/>
    </vehicle>
    <vehicle id="2#0.65" depart="109.00">
        <route edges="5 7 8 2 1 3 4 6"/>
    </vehicle>
    <vehicle id="0#0.77" depart="110.00">
        <route edges="1 3 4 2"/>
    </vehicle>
    <vehicle id="1#0.71" depart="110.00">
        <route edges="4 2 1 3"/>
    </vehicle>
    <vehicle id="2#0.66" depart="110.00">
        <route edges="5 2 1 3 4 6"/>
    </vehicle>
    <vehicle id="3#0.71" depart="110.00">
        <route edges="8 3 4 6 5 2 1 7"/>
    </vehicle>
    <vehicle id="1#0.72" depart="111.00">
        <route edges="4 6 5 3"/>
    </vehicle>
    <vehicle id="2#0.67" depart="112.00">
        <route edges="5 3 4 2 1 7 8 6"/>
    </vehicle>
    <vehicle id="3#0.72" depart="112.00">
        <route edges="8 6 5 3 4 2 1 7"/>
    </vehicle>
    <vehicle id="0#0.78" depart="113.00">
        <route edges="1 3 4 2"/>
    </vehicle>
    <vehicle id="3#0.73" depart="113.00">
        <route edges="8 6 5 7"/>
    </vehicle>
    <vehicle id="1#0.73" depart="114.00">
        <route edges="4 6 5 7 8 2 1 3"/>
    </vehicle>
    <vehicle id="2#0.68" depart="114.00">
        <route edges="5 7 8 6"/>
    </vehicle>
    <vehicle id="3#0.74" depart="114.00">
        <route edges="8 2 1 7"/>
    </vehicle>
    <vehicle id="0#0.79" depart="115.00">
        <route edges="1 6 5 3 4 2"/>
    </vehicle>
    <vehicle id="1#0.74" depart="115.00">
        <route edges="4 2 1 7 8 6 5 3"/>
    </vehicle>
    <vehicle id="2#0.69" depart="115.00">
        <route edges="5 7 8 2 1 6"/>
    </vehicle>
    <vehicle id="1#0.75" depart="116.00">
        <route edges="4 2 1 3"/>
    </vehicle>
    <vehicle id="2#0.70" depart="116.00">
        <route edges="5 2 1 3 4 7 8 6"/>
    </vehicle>
    <vehicle id="3#0.75" depart="116.00">
        <route edges="8 6 5 2 1 7"/>
    </vehicle>
    <vehicle id="0#0.80" depart="117.00">
        <route edges="1 6 5 7 8 2"/>
    </vehicle>
    <vehicle id="1#0.76" depart="117.00">
        <route edges="4 6 5 7 8 2 1 3"/>
    </vehicle>
    <vehicle id="2#0.71" depart="117.00">
        <route edges="5 7 8 3 4 6"/>
    </vehicle>
    <vehicle id="3#0.76" depart="117.00">
        <route edges="8 6 5 2 1 3 4 7"/>
    </vehicle>
    <vehicle id="1#0.77" depart="118.00">
        <route edges="4 2 1 7 8 6 5 3"/>
    </vehicle>
    <vehicle id="2#0.72" depart="118.00">
        <route edges="5 3 4 2 1 6"/>
    </vehicle>
    <vehicle id="0#0.81" depart="119.00">
        <route edges="1 3 4 2"/>
    </vehicle>
    <vehicle id="1#0.78" depart="119.00">
        <route edges="4 7 8 2 1 6 5 3"/>
    </vehicle>
    <vehicle id="2#0.73" depart="119.00">
        <route edges="5 7 8 6"/>
    </vehicle>
    <vehicle id="3#0.77" depart="119.00">
        <route edges="8 3 4 2 1 6 5 7"/>
    </vehicle>
    <vehicle id="0#0.82" depart="120.00">
        <route edges="1 7 8 6 5 3 4 2"/>
    </vehicle>
    <vehicle id="3#0.78" depart="120.00">
        <route edges="8 6 5 7"/>
    </vehicle>
    <vehicle id="0#0.83" depart="121.00">
        <route edges="1 3 4 2"/>
    </vehicle>
    <vehicle id="0#0.84" depart="122.00">
        <route edges="1 3 4 2"/>