<?xml version="1.0" encoding="UTF-8"?>

<!-- generated on 2023-05-16 00:22:50 by Eclipse SUMO jtrrouter Version 1.16.0
<configuration xmlns:xsi="http://www.w3.org/2001/XMLSchema-instance" xsi:noNamespaceSchemaLocation="http://sumo.dlr.de/xsd/jtrrouterConfiguration.xsd">

    <input>
        <net-file value=".\SUMO_Input\net\Test4.net.xml"/>
        <route-files value=".\SUMO_Input\route\Test4.trip.xml"/>
        <turn-ratio-files value=".\SUMO_Input\route\Test4.turndefs.xml"/>
    </input>

    <output>
        <output-file value=".\SUMO_Input\route\Test4.rou.xml"/>
    </output>

    <processing>
        <accept-all-destinations value="true"/>
    </processing>

</configuration>
-->

<routes xmlns:xsi="http://www.w3.org/2001/XMLSchema-instance" xsi:noNamespaceSchemaLocation="http://sumo.dlr.de/xsd/routes_file.xsd">
    <vehicle id="0#0.0" depart="0.00">
        <route edges="1 6"/>
    </vehicle>
    <vehicle id="1#0.0" depart="0.00">
        <route edges="4 6"/>
    </vehicle>
    <vehicle id="2#0.0" depart="0.00">
        <route edges="5 2"/>
    </vehicle>
    <vehicle id="3#0.0" depart="0.00">
        <route edges="8 6"/>
    </vehicle>
    <vehicle id="0#0.1" depart="36.00">
        <route edges="1 3"/>
    </vehicle>
    <vehicle id="1#0.1" depart="36.00">
        <route edges="4 2"/>
    </vehicle>
    <vehicle id="2#0.1" depart="36.00">
        <route edges="5 7"/>
    </vehicle>
    <vehicle id="3#0.1" depart="36.00">
        <route edges="8 3"/>
    </vehicle>
    <vehicle id="0#0.2" depart="72.00">
        <route edges="1 3"/>
    </vehicle>
    <vehicle id="1#0.2" depart="72.00">
        <route edges="4 6"/>
    </vehicle>
    <vehicle id="2#0.2" depart="72.00">
        <route edges="5 2"/>
    </vehicle>
    <vehicle id="3#0.2" depart="72.00">
        <route edges="8 6"/>
    </vehicle>
    <vehicle id="0#0.3" depart="108.00">
        <route edges="1 3"/>
    </vehicle>
    <vehicle id="1#0.3" depart="108.00">
        <route edges="4 2"/>
    </vehicle>
    <vehicle id="2#0.3" depart="108.00">
        <route edges="5 7"/>
    </vehicle>
    <vehicle id="3#0.3" depart="108.00">
        <route edges="8 3"/>
    </vehicle>
    <vehicle id="0#0.4" depart="144.00">
        <route edges="1 3"/>
    </vehicle>
    <vehicle id="1#0.4" depart="144.00">
        <route edges="4 7"/>
    </vehicle>
    <vehicle id="2#0.4" depart="144.00">
        <route edges="5 7"/>
    </vehicle>
    <vehicle id="3#0.4" depart="144.00">
        <route edges="8 6"/>
    </vehicle>
    <vehicle id="0#0.5" depart="180.00">
        <route edges="1 3"/>
    </vehicle>
    <vehicle id="1#0.5" depart="180.00">
        <route edges="4 2"/>
    </vehicle>
    <vehicle id="2#0.5" depart="180.00">
        <route edges="5 7"/>
    </vehicle>
    <vehicle id="3#0.5" depart="180.00">
        <route edges="8 6"/>
    </vehicle>
    <vehicle id="0#1.0" depart="200.00">
        <route edges="1 7"/>
    </vehicle>
    <vehicle id="1#1.0" depart="200.00">
        <route edges="4 7"/>
    </vehicle>
    <vehicle id="2#1.0" depart="200.00">
        <route edges="5 7"/>
    </vehicle>
    <vehicle id="3#1.0" depart="200.00">
        <route edges="8 6"/>
    </vehicle>
    <vehicle id="2#1.1" depart="224.00">
        <route edges="5 7"/>
    </vehicle>
    <vehicle id="3#1.1" depart="224.00">
        <route edges="8 3"/>
    </vehicle>
    <vehicle id="0#1.1" depart="228.80">
        <route edges="1 3"/>
    </vehicle>
    <vehicle id="1#1.1" depart="228.80">
        <route edges="4 2"/>
    </vehicle>
    <vehicle id="2#1.2" depart="248.00">
        <route edges="5 7"/>
    </vehicle>
    <vehicle id="3#1.2" depart="248.00">
        <route edges="8 2"/>
    </vehicle>
    <vehicle id="0#1.2" depart="257.60">
        <route edges="1 7"/>
    </vehicle>
    <vehicle id="1#1.2" depart="257.60">
        <route edges="4 2"/>
    </vehicle>
    <vehicle id="2#1.3" depart="272.00">
        <route edges="5 7"/>
    </vehicle>
    <vehicle id="3#1.3" depart="272.00">
        <route edges="8 6"/>
    </vehicle>
    <vehicle id="0#1.3" depart="286.40">
        <route edges="1 3"/>
    </vehicle>
    <vehicle id="1#1.3" depart="286.40">
        <route edges="4 2"/>
    </vehicle>
    <vehicle id="2#1.4" depart="296.00">
        <route edges="5 7"/>
    </vehicle>
    <vehicle id="3#1.4" depart="296.00">
        <route edges="8 6"/>
    </vehicle>
    <vehicle id="0#1.4" depart="315.20">
        <route edges="1 3"/>
    </vehicle>
    <vehicle id="1#1.4" depart="315.20">
        <route edges="4 2"/>
    </vehicle>
    <vehicle id="2#1.5" depart="320.00">
        <route edges="5 3"/>
    </vehicle>
    <vehicle id="3#1.5" depart="320.00">
        <route edges="8 6"/>
    </vehicle>
    <vehicle id="0#1.5" depart="344.00">
        <route edges="1 3"/>
    </vehicle>
    <vehicle id="1#1.5" depart="344.00">
        <route edges="4 7"/>
    </vehicle>
    <vehicle id="2#1.6" depart="344.00">
        <route edges="5 2"/>
    </vehicle>
    <vehicle id="3#1.6" depart="344.00">
        <route edges="8 6"/>
    </vehicle>
    <vehicle id="2#1.7" depart="368.00">
        <route edges="5 7"/>
    </vehicle>
    <vehicle id="3#1.7" depart="368.00">
        <route edges="8 6"/>
    </vehicle>
    <vehicle id="0#1.6" depart="372.80">
        <route edges="1 3"/>
    </vehicle>
    <vehicle id="1#1.6" depart="372.80">
        <route edges="4 7"/>
    </vehicle>
    <vehicle id="2#1.8" depart="392.00">
        <route edges="5 7"/>
    </vehicle>
    <vehicle id="3#1.8" depart="392.00">
        <route edges="8 6"/>
    </vehicle>
    <vehicle id="0#2.0" depart="400.00">
        <route edges="1 3"/>
    </vehicle>
    <vehicle id="1#2.0" depart="400.00">
        <route edges="4 2"/>
    </vehicle>
    <vehicle id="2#2.0" depart="400.00">
        <route edges="5 3"/>
    </vehicle>
    <vehicle id="3#2.0" depart="400.00">
        <route edges="8 6"/>
    </vehicle>
    <vehicle id="2#2.1" depart="418.00">
        <route edges="5 3"/>
    </vehicle>
    <vehicle id="3#2.1" depart="418.00">
        <route edges="8 6"/>
    </vehicle>
    <vehicle id="0#2.1" depart="424.00">
        <route edges="1 3"/>
    </vehicle>
    <vehicle id="1#2.1" depart="424.00">
        <route edges="4 2"/>
    </vehicle>
    <vehicle id="2#2.2" depart="436.00">
        <route edges="5 3"/>
    </vehicle>
    <vehicle id="3#2.2" depart="436.00">
        <route edges="8 6"/>
    </vehicle>
    <vehicle id="0#2.2" depart="448.00">
        <route edges="1 7"/>
    </vehicle>
    <vehicle id="1#2.2" depart="448.00">
        <route edges="4 2"/>
    </vehicle>
    <vehicle id="2#2.3" depart="454.00">
        <route edges="5 3"/>
    </vehicle>
    <vehicle id="3#2.3" depart="454.00">
        <route edges="8 6"/>
    </vehicle>
    <vehicle id="0#2.3" depart="472.00">
        <route edges="1 3"/>
    </vehicle>
    <vehicle id="1#2.3" depart="472.00">
        <route edges="4 2"/>
    </vehicle>
    <vehicle id="2#2.4" depart="472.00">
        <route edges="5 2"/>
    </vehicle>
    <vehicle id="3#2.4" depart="472.00">
        <route edges="8 6"/>
    </vehicle>
    <vehicle id="2#2.5" depart="490.00">
        <route edges="5 3"/>
    </vehicle>
    <vehicle id="3#2.5" depart="490.00">
        <route edges="8 2"/>
    </vehicle>
    <vehicle id="0#2.4" depart="496.00">
        <route edges="1 3"/>
    </vehicle>
    <vehicle id="1#2.4" depart="496.00">
        <route edges="4 2"/>
    </vehicle>
    <vehicle id="2#2.6" depart="508.00">
        <route edges="5 7"/>
    </vehicle>
    <vehicle id="3#2.6" depart="508.00">
        <route edges="8 6"/>
    </vehicle>
    <vehicle id="0#2.5" depart="520.00">
        <route edges="1 3"/>
    </vehicle>
    <vehicle id="1#2.5" depart="520.00">
        <route edges="4 2"/>
    </vehicle>
    <vehicle id="2#2.7" depart="526.00">
        <route edges="5 7"/>
    </vehicle>
    <vehicle id="3#2.7" depart="526.00">
        <route edges="8 6"/>
    </vehicle>
    <vehicle id="0#2.6" depart="544.00">
        <route edges="1 3"/>
    </vehicle>
    <vehicle id="1#2.6" depart="544.00">
        <route edges="4 2"/>
    </vehicle>
    <vehicle id="2#2.8" depart="544.00">
        <route edges="5 7"/>
    </vehicle>
    <vehicle id="3#2.8" depart="544.00">
        <route edges="8 6"/>
    </vehicle>
    <vehicle id="2#2.9" depart="562.00">
        <route edges="5 7"/>
    </vehicle>
    <vehicle id="3#2.9" depart="562.00">
        <route edges="8 6"/>
    </vehicle>
    <vehicle id="0#2.7" depart="568.00">
        <route edges="1 3"/>
    </vehicle>
    <vehicle id="1#2.7" depart="568.00">
        <route edges="4 7"/>
    </vehicle>
    <vehicle id="2#2.10" depart="580.00">
        <route edges="5 2"/>
    </vehicle>
    <vehicle id="3#2.10" depart="580.00">
        <route edges="8 6"/>
    </vehicle>
    <vehicle id="0#2.8" depart="592.00">
        <route edges="1 3"/>
    </vehicle>
    <vehicle id="1#2.8" depart="592.00">
        <route edges="4 7"/>
    </vehicle>
    <vehicle id="2#2.11" depart="598.00">
        <route edges="5 7"/>
    </vehicle>
    <vehicle id="3#2.11" depart="598.00">
        <route edges="8 6"/>
    </vehicle>
    <vehicle id="0#3.0" depart="600.00">
        <route edges="1 3"/>
    </vehicle>
    <vehicle id="1#3.0" depart="600.00">
        <route edges="4 2"/>
    </vehicle>
    <vehicle id="2#3.0" depart="600.00">
        <route edges="5 7"/>
    </vehicle>
    <vehicle id="3#3.0" depart="600.00">
        <route edges="8 6"/>
    </vehicle>
    <vehicle id="2#3.1" depart="614.40">
        <route edges="5 7"/>
    </vehicle>
    <vehicle id="3#3.1" depart="614.40">
        <route edges="8 6"/>
    </vehicle>
    <vehicle id="0#3.1" depart="620.57">
        <route edges="1 7"/>
    </vehicle>
    <vehicle id="1#3.1" depart="620.57">
        <route edges="4 2"/>
    </vehicle>
    <vehicle id="2#3.2" depart="628.80">
        <route edges="5 7"/>
    </vehicle>
    <vehicle id="3#3.2" depart="628.80">
        <route edges="8 6"/>
    </vehicle>
    <vehicle id="0#3.2" depart="641.14">
        <route edges="1 3"/>
    </vehicle>
    <vehicle id="1#3.2" depart="641.14">
        <route edges="4 2"/>
    </vehicle>
    <vehicle id="2#3.3" depart="643.20">
        <route edges="5 7"/>
    </vehicle>
    <vehicle id="3#3.3" depart="643.20">
        <route edges="8 6"/>
    </vehicle>
    <vehicle id="2#3.4" depart="657.60">
        <route edges="5 7"/>
    </vehicle>
    <vehicle id="3#3.4" depart="657.60">
        <route edges="8 3"/>
    </vehicle>
    <vehicle id="0#3.3" depart="661.71">
        <route edges="1 6"/>
    </vehicle>
    <vehicle id="1#3.3" depart="661.71">
        <route edges="4 2"/>
    </vehicle>
    <vehicle id="2#3.5" depart="672.00">
        <route edges="5 7"/>
    </vehicle>
    <vehicle id="3#3.5" depart="672.00">
        <route edges="8 2"/>
    </vehicle>
    <vehicle id="0#3.4" depart="682.28">
        <route edges="1 6"/>
    </vehicle>
    <vehicle id="1#3.4" depart="682.28">
        <route edges="4 2"/>
    </vehicle>
    <vehicle id="2#3.6" depart="686.40">
        <route edges="5 7"/>
    </vehicle>
    <vehicle id="3#3.6" depart="686.40">
        <route edges="8 2"/>
    </vehicle>
    <vehicle id="2#3.7" depart="700.80">
        <route edges="5 7"/>
    </vehicle>
    <vehicle id="3#3.7" depart="700.80">
        <route edges="8 6"/>
    </vehicle>
    <vehicle id="0#3.5" depart="702.86">
        <route edges="1 7"/>
    </vehicle>
    <vehicle id="1#3.5" depart="702.86">
        <route edges="4 7"/>
    </vehicle>
    <vehicle id="2#3.8" depart="715.20">
        <route edges="5 3"/>
    </vehicle>
    <vehicle id="3#3.8" depart="715.20">
        <route edges="8 6"/>
    </vehicle>
    <vehicle id="0#3.6" depart="723.43">
        <route edges="1 3"/>
    </vehicle>
    <vehicle id="1#3.6" depart="723.43">
        <route edges="4 2"/>
    </vehicle>
    <vehicle id="2#3.9" depart="729.60">
        <route edges="5 7"/>
    </vehicle>
    <vehicle id="3#3.9" depart="729.60">
        <route edges="8 6"/>
    </vehicle>
    <vehicle id="0#3.7" depart="744.00">
        <route edges="1 3"/>
    </vehicle>
    <vehicle id="1#3.7" depart="744.00">
        <route edges="4 2"/>
    </vehicle>
    <vehicle id="2#3.10" depart="744.00">
        <route edges="5 7"/>
    </vehicle>
    <vehicle id="3#3.10" depart="744.00">
        <route edges="8 6"/>
    </vehicle>
    <vehicle id="2#3.11" depart="758.40">
        <route edges="5 7"/>
    </vehicle>
    <vehicle id="3#3.11" depart="758.40">
        <route edges="8 2"/>
    </vehicle>
    <vehicle id="0#3.8" depart="764.57">
        <route edges="1 6"/>
    </vehicle>
    <vehicle id="1#3.8" depart="764.57">
        <route edges="4 2"/>
    </vehicle>
    <vehicle id="2#3.12" depart="772.80">
        <route edges="5 7"/>
    </vehicle>
    <vehicle id="3#3.12" depart="772.80">
        <route edges="8 6"/>
    </vehicle>
    <vehicle id="0#3.9" depart="785.14">
        <route edges="1 3"/>
    </vehicle>
    <vehicle id="1#3.9" depart="785.14">
        <route edges="4 2"/>
    </vehicle>
    <vehicle id="2#3.13" depart="787.20">
        <route edges="5 7"/>
    </vehicle>
    <vehicle id="3#3.13" depart="787.20">
        <route edges="8 6"/>
    </vehicle>
    <vehicle id="0#4.0" depart="800.00">
        <route edges="1 3"/>
    </vehicle>
    <vehicle id="1#4.0" depart="800.00">
        <route edges="4 7"/>
    </vehicle>
    <vehicle id="2#4.0" depart="800.00">
        <route edges="5 3"/>
    </vehicle>
    <vehicle id="3#4.0" depart="800.00">
        <route edges="8 6"/>
    </vehicle>
    <vehicle id="2#4.1" depart="812.00">
        <route edges="5 7"/>
    </vehicle>
    <vehicle id="3#4.1" depart="812.00">
        <route edges="8 6"/>
    </vehicle>
    <vehicle id="0#4.1" depart="818.00">
        <route edges="1 3"/>
    </vehicle>
    <vehicle id="1#4.1" depart="818.00">
        <route edges="4 2"/>
    </vehicle>
    <vehicle id="2#4.2" depart="824.00">
        <route edges="5 7"/>
    </vehicle>
    <vehicle id="3#4.2" depart="824.00">
        <route edges="8 6"/>
    </vehicle>
    <vehicle id="0#4.2" depart="836.00">
        <route edges="1 3"/>
    </vehicle>
    <vehicle id="1#4.2" depart="836.00">
        <route edges="4 2"/>
    </vehicle>
    <vehicle id="2#4.3" depart="836.00">
        <route edges="5 7"/>
    </vehicle>
    <vehicle id="3#4.3" depart="836.00">
        <route edges="8 6"/>
    </vehicle>
    <vehicle id="2#4.4" depart="848.00">
        <route edges="5 3"/>
    </vehicle>
    <vehicle id="3#4.4" depart="848.00">
        <route edges="8 6"/>
    </vehicle>
    <vehicle id="0#4.3" depart="854.00">
        <route edges="1 6"/>
    </vehicle>
    <vehicle id="1#4.3" depart="854.00">
        <route edges="4 2"/>
    </vehicle>
    <vehicle id="2#4.5" depart="860.00">
        <route edges="5 7"/>
    </vehicle>
    <vehicle id="3#4.5" depart="860.00">
        <route edges="8 6"/>
    </vehicle>
    <vehicle id="0#4.4" depart="872.00">
        <route edges="1 7"/>
    </vehicle>
    <vehicle id="1#4.4" depart="872.00">
        <route edges="4 6"/>
    </vehicle>
    <vehicle id="2#4.6" depart="872.00">
        <route edges="5 7"/>
    </vehicle>
    <vehicle id="3#4.6" depart="872.00">
        <route edges="8 6"/>
    </vehicle>
    <vehicle id="2#4.7" depart="884.00">
        <route edges="5 7"/>
    </vehicle>
    <vehicle id="3#4.7" depart="884.00">
        <route edges="8 3"/>
    </vehicle>
    <vehicle id="0#4.5" depart="890.00">
        <route edges="1 3"/>
    </vehicle>
    <vehicle id="1#4.5" depart="890.00">
        <route edges="4 2"/>
    </vehicle>
    <vehicle id="2#4.8" depart="896.00">
        <route edges="5 7"/>
    </vehicle>
    <vehicle id="3#4.8" depart="896.00">
        <route edges="8 6"/>
    </vehicle>
    <vehicle id="0#4.6" depart="908.00">
        <route edges="1 3"/>
    </vehicle>
    <vehicle id="1#4.6" depart="908.00">
        <route edges="4 2"/>
    </vehicle>
    <vehicle id="2#4.9" depart="908.00">
        <route edges="5 7"/>
    </vehicle>
    <vehicle id="3#4.9" depart="908.00">
        <route edges="8 2"/>
    </vehicle>
    <vehicle id="2#4.10" depart="920.00">
        <route edges="5 7"/>
    </vehicle>
    <vehicle id="3#4.10" depart="920.00">
        <route edges="8 2"/>
    </vehicle>
    <vehicle id="0#4.7" depart="926.00">
        <route edges="1 6"/>
    </vehicle>
    <vehicle id="1#4.7" depart="926.00">
        <route edges="4 2"/>
    </vehicle>
    <vehicle id="2#4.11" depart="932.00">
        <route edges="5 2"/>
    </vehicle>
    <vehicle id="3#4.11" depart="932.00">
        <route edges="8 3"/>
    </vehicle>
    <vehicle id="0#4.8" depart="944.00">
        <route edges="1 3"/>
    </vehicle>
    <vehicle id="1#4.8" depart="944.00">
        <route edges="4 2"/>
    </vehicle>
    <vehicle id="2#4.12" depart="944.00">
        <route edges="5 7"/>
    </vehicle>
    <vehicle id="3#4.12" depart="944.00">
        <route edges="8 6"/>
    </vehicle>
    <vehicle id="2#4.13" depart="956.00">
        <route edges="5 3"/>
    </vehicle>
    <vehicle id="3#4.13" depart="956.00">
        <route edges="8 6"/>
    </vehicle>
    <vehicle id="0#4.9" depart="962.00">
        <route edges="1 3"/>
    </vehicle>
    <vehicle id="1#4.9" depart="962.00">
        <route edges="4 2"/>
    </vehicle>
    <vehicle id="2#4.14" depart="968.00">
        <route edges="5 3"/>
    </vehicle>
    <vehicle id="3#4.14" depart="968.00">
        <route edges="8 6"/>
    </vehicle>
    <vehicle id="0#4.10" depart="980.00">
        <route edges="1 3"/>
    </vehicle>
    <vehicle id="1#4.10" depart="980.00">
        <route edges="4 7"/>
    </vehicle>
    <vehicle id="2#4.15" depart="980.00">
        <route edges="5 7"/>
    </vehicle>
    <vehicle id="3#4.15" depart="980.00">
        <route edges="8 6"/>
    </vehicle>
    <vehicle id="2#4.16" depart="992.00">
        <route edges="5 7"/>
    </vehicle>
    <vehicle id="3#4.16" depart="992.00">
        <route edges="8 2"/>
    </vehicle>
    <vehicle id="0#4.11" depart="998.00">
        <route edges="1 3"/>
    </vehicle>
    <vehicle id="1#4.11" depart="998.00">
        <route edges="4 2"/>
    </vehicle>
    <vehicle id="0#5.0" depart="1000.00">
        <route edges="1 6"/>
    </vehicle>
    <vehicle id="1#5.0" depart="1000.00">
        <route edges="4 6"/>
    </vehicle>
    <vehicle id="2#5.0" depart="1000.00">
        <route edges="5 7"/>
    </vehicle>
    <vehicle id="3#5.0" depart="1000.00">
        <route edges="8 2"/>
    </vehicle>
    <vehicle id="2#5.1" depart="1010.29">
        <route edges="5 7"/>
    </vehicle>
    <vehicle id="3#5.1" depart="1010.29">
        <route edges="8 2"/>
    </vehicle>
    <vehicle id="0#5.1" depart="1016.00">
        <route edges="1 3"/>
    </vehicle>
    <vehicle id="1#5.1" depart="1016.00">
        <route edges="4 2"/>
    </vehicle>
    <vehicle id="2#5.2" depart="1020.57">
        <route edges="5 7"/>
    </vehicle>
    <vehicle id="3#5.2" depart="1020.57">
        <route edges="8 6"/>
    </vehicle>
    <vehicle id="2#5.3" depart="1030.86">
        <route edges="5 7"/>
    </vehicle>
    <vehicle id="3#5.3" depart="1030.86">
        <route edges="8 6"/>
    </vehicle>
    <vehicle id="0#5.2" depart="1032.00">
        <route edges="1 3"/>
    </vehicle>
    <vehicle id="1#5.2" depart="1032.00">
        <route edges="4 7"/>
    </vehicle>
    <vehicle id="2#5.4" depart="1041.14">
        <route edges="5 7"/>
    </vehicle>
    <vehicle id="3#5.4" depart="1041.14">
        <route edges="8 2"/>
    </vehicle>
    <vehicle id="0#5.3" depart="1048.00">
        <route edges="1 3"/>
    </vehicle>
    <vehicle id="1#5.3" depart="1048.00">
        <route edges="4 2"/>
    </vehicle>
    <vehicle id="2#5.5" depart="1051.43">
        <route edges="5 7"/>
    </vehicle>
    <vehicle id="3#5.5" depart="1051.43">
        <route edges="8 3"/>
    </vehicle>
    <vehicle id="2#5.6" depart="1061.72">
        <route edges="5 7"/>
    </vehicle>
    <vehicle id="3#5.6" depart="1061.72">
        <route edges="8 6"/>
    </vehicle>
    <vehicle id="0#5.4" depart="1064.00">
        <route edges="1 7"/>
    </vehicle>
    <vehicle id="1#5.4" depart="1064.00">
        <route edges="4 2"/>
    </vehicle>
    <vehicle id="2#5.7" depart="1072.00">
        <route edges="5 7"/>
    </vehicle>
    <vehicle id="3#5.7" depart="1072.00">
        <route edges="8 3"/>
    </vehicle>
    <vehicle id="0#5.5" depart="1080.00">
        <route edges="1 3"/>
    </vehicle>
    <vehicle id="1#5.5" depart="1080.00">
        <route edges="4 2"/>
    </vehicle>
    <vehicle id="2#5.8" depart="1082.29">
        <route edges="5 3"/>
    </vehicle>
    <vehicle id="3#5.8" depart="1082.29">
        <route edges="8 6"/>
    </vehicle>
    <vehicle id="2#5.9" depart="1092.57">
        <route edges="5 7"/>
    </vehicle>
    <vehicle id="3#5.9" depart="1092.57">
        <route edges="8 6"/>
    </vehicle>
    <vehicle id="0#5.6" depart="1096.00">
        <route edges="1 6"/>
    </vehicle>
    <vehicle id="1#5.6" depart="1096.00">
        <route edges="4 2"/>
    </vehicle>
    <vehicle id="2#5.10" depart="1102.86">
        <route edges="5 7"/>
    </vehicle>
    <vehicle id="3#5.10" depart="1102.86">
        <route edges="8 6"/>
    </vehicle>
    <vehicle id="0#5.7" depart="1112.00">
        <route edges="1 3"/>
    </vehicle>
    <vehicle id="1#5.7" depart="1112.00">
        <route edges="4 2"/>
    </vehicle>
    <vehicle id="2#5.11" depart="1113.15">
        <route edges="5 7"/>
    </vehicle>
    <vehicle id="3#5.11" depart="1113.15">
        <route edges="8 2"/>
    </vehicle>
    <vehicle id="2#5.12" depart="1123.43">
        <route edges="5 2"/>
    </vehicle>
    <vehicle id="3#5.12" depart="1123.43">
        <route edges="8 2"/>
    </vehicle>
    <vehicle id="0#5.8" depart="1128.00">
        <route edges="1 7"/>
    </vehicle>
    <vehicle id="1#5.8" depart="1128.00">
        <route edges="4 2"/>
    </vehicle>
    <vehicle id="2#5.13" depart="1133.72">
        <route edges="5 7"/>
    </vehicle>
    <vehicle id="3#5.13" depart="1133.72">
        <route edges="8 3"/>
    </vehicle>
    <vehicle id="0#5.9" depart="1144.00">
        <route edges="1 3"/>
    </vehicle>
    <vehicle id="1#5.9" depart="1144.00">
        <route edges="4 6"/>
    </vehicle>
    <vehicle id="2#5.14" depart="1144.00">
        <route edges="5 7"/>
    </vehicle>
    <vehicle id="3#5.14" depart="1144.00">
        <route edges="8 6"/>
    </vehicle>
    <vehicle id="2#5.15" depart="1154.29">
        <route edges="5 7"/>
    </vehicle>
    <vehicle id="3#5.15" depart="1154.29">
        <route edges="8 6"/>
    </vehicle>
    <vehicle id="0#5.10" depart="1160.00">
        <route edges="1 6"/>
    </vehicle>
    <vehicle id="1#5.10" depart="1160.00">
        <route edges="4 6"/>
    </vehicle>
    <vehicle id="2#5.16" depart="1164.58">
        <route edges="5 7"/>
    </vehicle>
    <vehicle id="3#5.16" depart="1164.58">
        <route edges="8 6"/>
    </vehicle>
    <vehicle id="2#5.17" depart="1174.86">
        <route edges="5 7"/>
    </vehicle>
    <vehicle id="3#5.17" depart="1174.86">
        <route edges="8 6"/>
    </vehicle>
    <vehicle id="0#5.11" depart="1176.00">
        <route edges="1 3"/>
    </vehicle>
    <vehicle id="1#5.11" depart="1176.00">
        <route edges="4 2"/>
    </vehicle>
    <vehicle id="2#5.18" depart="1185.15">
        <route edges="5 3"/>
    </vehicle>
    <vehicle id="3#5.18" depart="1185.15">
        <route edges="8 6"/>
    </vehicle>
    <vehicle id="0#5.12" depart="1192.00">
        <route edges="1 3"/>
    </vehicle>
    <vehicle id="1#5.12" depart="1192.00">
        <route edges="4 2"/>
    </vehicle>
    <vehicle id="2#5.19" depart="1195.43">
        <route edges="5 7"/>
    </vehicle>
    <vehicle id="3#5.19" depart="1195.43">
        <route edges="8 6"/>
    </vehicle>
    <vehicle id="0#6.0" depart="1200.00">
        <route edges="1 3"/>
    </vehicle>
    <vehicle id="1#6.0" depart="1200.00">
        <route edges="4 2"/>
    </vehicle>
    <vehicle id="2#6.0" depart="1200.00">
        <route edges="5 7"/>
    </vehicle>
    <vehicle id="3#6.0" depart="1200.00">
        <route edges="8 6"/>
    </vehicle>
    <vehicle id="2#6.1" depart="1209.00">
        <route edges="5 2"/>
    </vehicle>
    <vehicle id="3#6.1" depart="1209.00">
        <route edges="8 6"/>
    </vehicle>
    <vehicle id="0#6.1" depart="1214.40">
        <route edges="1 7"/>
    </vehicle>
    <vehicle id="1#6.1" depart="1214.40">
        <route edges="4 6"/>
    </vehicle>
    <vehicle id="2#6.2" depart="1218.00">
        <route edges="5 7"/>
    </vehicle>
    <vehicle id="3#6.2" depart="1218.00">
        <route edges="8 6"/>
    </vehicle>
    <vehicle id="2#6.3" depart="1227.00">
        <route edges="5 2"/>
    </vehicle>
    <vehicle id="3#6.3" depart="1227.00">
        <route edges="8 6"/>
    </vehicle>
    <vehicle id="0#6.2" depart="1228.80">
        <route edges="1 3"/>
    </vehicle>
    <vehicle id="1#6.2" depart="1228.80">
        <route edges="4 2"/>
    </vehicle>
    <vehicle id="2#6.4" depart="1236.00">
        <route edges="5 3"/>
    </vehicle>
    <vehicle id="3#6.4" depart="1236.00">
        <route edges="8 6"/>
    </vehicle>
    <vehicle id="0#6.3" depart="1243.20">
        <route edges="1 6"/>
    </vehicle>
    <vehicle id="1#6.3" depart="1243.20">
        <route edges="4 2"/>
    </vehicle>
    <vehicle id="2#6.5" depart="1245.00">
        <route edges="5 7"/>
    </vehicle>
    <vehicle id="3#6.5" depart="1245.00">
        <route edges="8 3"/>
    </vehicle>
    <vehicle id="2#6.6" depart="1254.00">
        <route edges="5 7"/>
    </vehicle>
    <vehicle id="3#6.6" depart="1254.00">
        <route edges="8 6"/>
    </vehicle>
    <vehicle id="0#6.4" depart="1257.60">
        <route edges="1 3"/>
    </vehicle>
    <vehicle id="1#6.4" depart="1257.60">
        <route edges="4 2"/>
    </vehicle>
    <vehicle id="2#6.7" depart="1263.00">
        <route edges="5 7"/>
    </vehicle>
    <vehicle id="3#6.7" depart="1263.00">
        <route edges="8 6"/>
    </vehicle>
    <vehicle id="0#6.5" depart="1272.00">
        <route edges="1 3"/>
    </vehicle>
    <vehicle id="1#6.5" depart="1272.00">
        <route edges="4 2"/>
    </vehicle>
    <vehicle id="2#6.8" depart="1272.00">
        <route edges="5 7"/>
    </vehicle>
    <vehicle id="3#6.8" depart="1272.00">
        <route edges="8 6"/>
    </vehicle>
    <vehicle id="2#6.9" depart="1281.00">
        <route edges="5 7"/>
    </vehicle>
    <vehicle id="3#6.9" depart="1281.00">
        <route edges="8 6"/>
    </vehicle>
    <vehicle id="0#6.6" depart="1286.40">
        <route edges="1 3"/>
    </vehicle>
    <vehicle id="1#6.6" depart="1286.40">
        <route edges="4 2"/>
    </vehicle>
    <vehicle id="2#6.10" depart="1290.00">
        <route edges="5 7"/>
    </vehicle>
    <vehicle id="3#6.10" depart="1290.00">
        <route edges="8 6"/>
    </vehicle>
    <vehicle id="2#6.11" depart="1299.00">
        <route edges="5 7"/>
    </vehicle>
    <vehicle id="3#6.11" depart="1299.00">
        <route edges="8 6"/>
    </vehicle>
    <vehicle id="0#6.7" depart="1300.80">
        <route edges="1 3"/>
    </vehicle>
    <vehicle id="1#6.7" depart="1300.80">
        <route edges="4 7"/>
    </vehicle>
    <vehicle id="2#6.12" depart="1308.00">
        <route edges="5 7"/>
    </vehicle>
    <vehicle id="3#6.12" depart="1308.00">
        <route edges="8 2"/>
    </vehicle>
    <vehicle id="0#6.8" depart="1315.20">
        <route edges="1 7"/>
    </vehicle>
    <vehicle id="1#6.8" depart="1315.20">
        <route edges="4 7"/>
    </vehicle>
    <vehicle id="2#6.13" depart="1317.00">
        <route edges="5 3"/>
    </vehicle>
    <vehicle id="3#6.13" depart="1317.00">
        <route edges="8 2"/>
    </vehicle>
    <vehicle id="2#6.14" depart="1326.00">
        <route edges="5 2"/>
    </vehicle>
    <vehicle id="3#6.14" depart="1326.00">
        <route edges="8 3"/>
    </vehicle>
    <vehicle id="0#6.9" depart="1329.60">
        <route edges="1 3"/>
    </vehicle>
    <vehicle id="1#6.9" depart="1329.60">
        <route edges="4 2"/>
    </vehicle>
    <vehicle id="2#6.15" depart="1335.00">
        <route edges="5 7"/>
    </vehicle>
    <vehicle id="3#6.15" depart="1335.00">
        <route edges="8 6"/>
    </vehicle>
    <vehicle id="0#6.10" depart="1344.00">
        <route edges="1 6"/>
    </vehicle>
    <vehicle id="1#6.10" depart="1344.00">
        <route edges="4 2"/>
    </vehicle>
    <vehicle id="2#6.16" depart="1344.00">
        <route edges="5 7"/>
    </vehicle>
    <vehicle id="3#6.16" depart="1344.00">
        <route edges="8 6"/>
    </vehicle>
    <vehicle id="2#6.17" depart="1353.00">
        <route edges="5 7"/>
    </vehicle>
    <vehicle id="3#6.17" depart="1353.00">
        <route edges="8 3"/>
    </vehicle>
    <vehicle id="0#6.11" depart="1358.40">
        <route edges="1 3"/>
    </vehicle>
    <vehicle id="1#6.11" depart="1358.40">
        <route edges="4 2"/>
    </vehicle>
    <vehicle id="2#6.18" depart="1362.00">
        <route edges="5 7"/>
    </vehicle>
    <vehicle id="3#6.18" depart="1362.00">
        <route edges="8 2"/>
    </vehicle>
    <vehicle id="2#6.19" depart="1371.00">
        <route edges="5 3"/>
    </vehicle>
    <vehicle id="3#6.19" depart="1371.00">
        <route edges="8 6"/>
    </vehicle>
    <vehicle id="0#6.12" depart="1372.80">
        <route edges="1 3"/>
    </vehicle>
    <vehicle id="1#6.12" depart="1372.80">
        <route edges="4 2"/>
    </vehicle>
    <vehicle id="2#6.20" depart="1380.00">
        <route edges="5 2"/>
    </vehicle>
    <vehicle id="3#6.20" depart="1380.00">
        <route edges="8 3"/>
    </vehicle>
    <vehicle id="0#6.13" depart="1387.20">
        <route edges="1 6"/>
    </vehicle>
    <vehicle id="1#6.13" depart="1387.20">
        <route edges="4 2"/>
    </vehicle>
    <vehicle id="2#6.21" depart="1389.00">