<?xml version="1.0" encoding="UTF-8"?>

<!-- generated on 2023-05-19 15:08:28 by Eclipse SUMO jtrrouter Version 1.16.0
<configuration xmlns:xsi="http://www.w3.org/2001/XMLSchema-instance" xsi:noNamespaceSchemaLocation="http://sumo.dlr.de/xsd/jtrrouterConfiguration.xsd">

    <input>
        <net-file value=".\SUMO_Input\net\Test4.net.xml"/>
        <route-files value=".\SUMO_Input\route\Test4.trip.xml"/>
        <turn-ratio-files value=".\SUMO_Input\route\Test4.turndefs.xml"/>
    </input>

    <output>
        <output-file value=".\SUMO_Input\route\Test4.rou.xml"/>
    </output>

    <processing>
        <accept-all-destinations value="true"/>
    </processing>

</configuration>
-->

<routes xmlns:xsi="http://www.w3.org/2001/XMLSchema-instance" xsi:noNamespaceSchemaLocation="http://sumo.dlr.de/xsd/routes_file.xsd">
    <vehicle id="0#0.0" depart="0.00">
        <route edges="1 6"/>
    </vehicle>
    <vehicle id="1#0.0" depart="0.00">
        <route edges="4 6"/>
    </vehicle>
    <vehicle id="2#0.0" depart="0.00">
        <route edges="5 2"/>
    </vehicle>
    <vehicle id="3#0.0" depart="0.00">
        <route edges="8 6"/>
    </vehicle>
    <vehicle id="0#0.1" depart="9.00">
        <route edges="1 3"/>
    </vehicle>
    <vehicle id="1#0.1" depart="9.00">
        <route edges="4 2"/>
    </vehicle>
    <vehicle id="0#0.2" depart="18.00">
        <route edges="1 6"/>
    </vehicle>
    <vehicle id="1#0.2" depart="18.00">
        <route edges="4 2"/>
    </vehicle>
    <vehicle id="2#0.1" depart="18.00">
        <route edges="5 7"/>
    </vehicle>
    <vehicle id="3#0.1" depart="18.00">
        <route edges="8 6"/>
    </vehicle>
    <vehicle id="0#0.3" depart="27.00">
        <route edges="1 3"/>
    </vehicle>
    <vehicle id="1#0.3" depart="27.00">
        <route edges="4 2"/>
    </vehicle>
    <vehicle id="0#0.4" depart="36.00">
        <route edges="1 3"/>
    </vehicle>
    <vehicle id="1#0.4" depart="36.00">
        <route edges="4 2"/>
    </vehicle>
    <vehicle id="2#0.2" depart="36.00">
        <route edges="5 7"/>
    </vehicle>
    <vehicle id="3#0.2" depart="36.00">
        <route edges="8 3"/>
    </vehicle>
    <vehicle id="0#0.5" depart="45.00">
        <route edges="1 3"/>
    </vehicle>
    <vehicle id="1#0.5" depart="45.00">
        <route edges="4 7"/>
    </vehicle>
    <vehicle id="0#0.6" depart="54.00">
        <route edges="1 3"/>
    </vehicle>
    <vehicle id="1#0.6" depart="54.00">
        <route edges="4 2"/>
    </vehicle>
    <vehicle id="2#0.3" depart="54.00">
        <route edges="5 2"/>
    </vehicle>
    <vehicle id="3#0.3" depart="54.00">
        <route edges="8 6"/>
    </vehicle>
    <vehicle id="0#0.7" depart="63.00">
        <route edges="1 3"/>
    </vehicle>
    <vehicle id="1#0.7" depart="63.00">
        <route edges="4 2"/>
    </vehicle>
    <vehicle id="0#0.8" depart="72.00">
        <route edges="1 7"/>
    </vehicle>
    <vehicle id="1#0.8" depart="72.00">
        <route edges="4 7"/>
    </vehicle>
    <vehicle id="2#0.4" depart="72.00">
        <route edges="5 7"/>
    </vehicle>
    <vehicle id="3#0.4" depart="72.00">
        <route edges="8 6"/>
    </vehicle>
    <vehicle id="0#0.9" depart="81.00">
        <route edges="1 3"/>
    </vehicle>
    <vehicle id="1#0.9" depart="81.00">
        <route edges="4 2"/>
    </vehicle>
    <vehicle id="0#0.10" depart="90.00">
        <route edges="1 3"/>
    </vehicle>
    <vehicle id="1#0.10" depart="90.00">
        <route edges="4 2"/>
    </vehicle>
    <vehicle id="2#0.5" depart="90.00">
        <route edges="5 7"/>
    </vehicle>
    <vehicle id="3#0.5" depart="90.00">
        <route edges="8 2"/>
    </vehicle>
    <vehicle id="0#0.11" depart="99.00">
        <route edges="1 7"/>
    </vehicle>
    <vehicle id="1#0.11" depart="99.00">
        <route edges="4 2"/>
    </vehicle>
    <vehicle id="0#0.12" depart="108.00">
        <route edges="1 3"/>
    </vehicle>
    <vehicle id="1#0.12" depart="108.00">
        <route edges="4 2"/>
    </vehicle>
    <vehicle id="2#0.6" depart="108.00">
        <route edges="5 3"/>
    </vehicle>
    <vehicle id="3#0.6" depart="108.00">
        <route edges="8 2"/>
    </vehicle>
    <vehicle id="0#0.13" depart="117.00">
        <route edges="1 3"/>
    </vehicle>
    <vehicle id="1#0.13" depart="117.00">
        <route edges="4 7"/>
    </vehicle>
    <vehicle id="0#0.14" depart="126.00">
        <route edges="1 3"/>
    </vehicle>
    <vehicle id="1#0.14" depart="126.00">
        <route edges="4 2"/>
    </vehicle>
    <vehicle id="2#0.7" depart="126.00">
        <route edges="5 3"/>
    </vehicle>
    <vehicle id="3#0.7" depart="126.00">
        <route edges="8 6"/>
    </vehicle>
    <vehicle id="0#0.15" depart="135.00">
        <route edges="1 3"/>
    </vehicle>
    <vehicle id="1#0.15" depart="135.00">
        <route edges="4 7"/>
    </vehicle>
    <vehicle id="0#0.16" depart="144.00">
        <route edges="1 3"/>
    </vehicle>
    <vehicle id="1#0.16" depart="144.00">
        <route edges="4 2"/>
    </vehicle>
    <vehicle id="2#0.8" depart="144.00">
        <route edges="5 7"/>
    </vehicle>
    <vehicle id="3#0.8" depart="144.00">
        <route edges="8 6"/>
    </vehicle>
    <vehicle id="0#0.17" depart="153.00">
        <route edges="1 3"/>
    </vehicle>
    <vehicle id="1#0.17" depart="153.00">
        <route edges="4 7"/>
    </vehicle>
    <vehicle id="0#0.18" depart="162.00">
        <route edges="1 7"/>
    </vehicle>
    <vehicle id="1#0.18" depart="162.00">
        <route edges="4 2"/>
    </vehicle>
    <vehicle id="2#0.9" depart="162.00">
        <route edges="5 7"/>
    </vehicle>
    <vehicle id="3#0.9" depart="162.00">
        <route edges="8 6"/>
    </vehicle>
    <vehicle id="0#0.19" depart="171.00">
        <route edges="1 3"/>
    </vehicle>
    <vehicle id="1#0.19" depart="171.00">
        <route edges="4 7"/>
    </vehicle>
    <vehicle id="0#0.20" depart="180.00">
        <route edges="1 3"/>
    </vehicle>
    <vehicle id="1#0.20" depart="180.00">
        <route edges="4 2"/>
    </vehicle>
    <vehicle id="2#0.10" depart="180.00">
        <route edges="5 3"/>
    </vehicle>
    <vehicle id="3#0.10" depart="180.00">
        <route edges="8 2"/>
    </vehicle>
    <vehicle id="0#0.21" depart="189.00">
        <route edges="1 3"/>
    </vehicle>
    <vehicle id="1#0.21" depart="189.00">
        <route edges="4 2"/>
    </vehicle>
    <vehicle id="0#0.22" depart="198.00">
        <route edges="1 7"/>
    </vehicle>
    <vehicle id="1#0.22" depart="198.00">
        <route edges="4 2"/>
    </vehicle>
    <vehicle id="2#0.11" depart="198.00">
        <route edges="5 3"/>
    </vehicle>
    <vehicle id="3#0.11" depart="198.00">
        <route edges="8 6"/>
    </vehicle>
    <vehicle id="0#0.23" depart="207.00">
        <route edges="1 3"/>
    </vehicle>
    <vehicle id="1#0.23" depart="207.00">
        <route edges="4 2"/>
    </vehicle>
    <vehicle id="0#0.24" depart="216.00">
        <route edges="1 3"/>
    </vehicle>
    <vehicle id="1#0.24" depart="216.00">
        <route edges="4 2"/>
    </vehicle>
    <vehicle id="2#0.12" depart="216.00">
        <route edges="5 3"/>
    </vehicle>
    <vehicle id="3#0.12" depart="216.00">
        <route edges="8 2"/>
    </vehicle>
    <vehicle id="0#0.25" depart="225.00">
        <route edges="1 3"/>
    </vehicle>
    <vehicle id="1#0.25" depart="225.00">
        <route edges="4 2"/>
    </vehicle>
    <vehicle id="0#0.26" depart="234.00">
        <route edges="1 6"/>
    </vehicle>
    <vehicle id="1#0.26" depart="234.00">
        <route edges="4 2"/>
    </vehicle>
    <vehicle id="2#0.13" depart="234.00">
        <route edges="5 3"/>
    </vehicle>
    <vehicle id="3#0.13" depart="234.00">
        <route edges="8 3"/>
    </vehicle>
    <vehicle id="0#0.27" depart="243.00">
        <route edges="1 3"/>
    </vehicle>
    <vehicle id="1#0.27" depart="243.00">
        <route edges="4 2"/>
    </vehicle>
    <vehicle id="0#0.28" depart="252.00">
        <route edges="1 3"/>
    </vehicle>
    <vehicle id="1#0.28" depart="252.00">
        <route edges="4 2"/>
    </vehicle>
    <vehicle id="2#0.14" depart="252.00">
        <route edges="5 7"/>
    </vehicle>
    <vehicle id="3#0.14" depart="252.00">
        <route edges="8 6"/>
    </vehicle>
    <vehicle id="0#0.29" depart="261.00">
        <route edges="1 3"/>
    </vehicle>
    <vehicle id="1#0.29" depart="261.00">
        <route edges="4 2"/>
    </vehicle>
    <vehicle id="0#0.30" depart="270.00">
        <route edges="1 3"/>
    </vehicle>
    <vehicle id="1#0.30" depart="270.00">
        <route edges="4 7"/>
    </vehicle>
    <vehicle id="2#0.15" depart="270.00">
        <route edges="5 2"/>
    </vehicle>
    <vehicle id="3#0.15" depart="270.00">
        <route edges="8 6"/>
    </vehicle>
    <vehicle id="0#0.31" depart="279.00">
        <route edges="1 3"/>
    </vehicle>
    <vehicle id="1#0.31" depart="279.00">
        <route edges="4 7"/>
    </vehicle>
    <vehicle id="0#0.32" depart="288.00">
        <route edges="1 3"/>
    </vehicle>
    <vehicle id="1#0.32" depart="288.00">
        <route edges="4 7"/>
    </vehicle>
    <vehicle id="2#0.16" depart="288.00">
        <route edges="5 7"/>
    </vehicle>
    <vehicle id="3#0.16" depart="288.00">
        <route edges="8 6"/>
    </vehicle>
    <vehicle id="0#0.33" depart="297.00">
        <route edges="1 6"/>
    </vehicle>
    <vehicle id="1#0.33" depart="297.00">
        <route edges="4 2"/>
    </vehicle>
    <vehicle id="0#0.34" depart="306.00">
        <route edges="1 6"/>
    </vehicle>
    <vehicle id="1#0.34" depart="306.00">
        <route edges="4 2"/>
    </vehicle>
    <vehicle id="2#0.17" depart="306.00">
        <route edges="5 7"/>
    </vehicle>
    <vehicle id="3#0.17" depart="306.00">
        <route edges="8 3"/>
    </vehicle>
    <vehicle id="0#0.35" depart="315.00">
        <route edges="1 3"/>
    </vehicle>
    <vehicle id="1#0.35" depart="315.00">
        <route edges="4 2"/>
    </vehicle>
    <vehicle id="0#0.36" depart="324.00">
        <route edges="1 3"/>
    </vehicle>
    <vehicle id="1#0.36" depart="324.00">
        <route edges="4 2"/>
    </vehicle>
    <vehicle id="2#0.18" depart="324.00">
        <route edges="5 7"/>
    </vehicle>
    <vehicle id="3#0.18" depart="324.00">
        <route edges="8 6"/>
    </vehicle>
    <vehicle id="0#0.37" depart="333.00">
        <route edges="1 6"/>
    </vehicle>
    <vehicle id="1#0.37" depart="333.00">
        <route edges="4 2"/>
    </vehicle>
    <vehicle id="0#0.38" depart="342.00">
        <route edges="1 6"/>
    </vehicle>
    <vehicle id="1#0.38" depart="342.00">
        <route edges="4 2"/>
    </vehicle>
    <vehicle id="2#0.19" depart="342.00">
        <route edges="5 7"/>
    </vehicle>
    <vehicle id="3#0.19" depart="342.00">
        <route edges="8 2"/>
    </vehicle>
    <vehicle id="0#0.39" depart="351.00">
        <route edges="1 6"/>
    </vehicle>
    <vehicle id="1#0.39" depart="351.00">
        <route edges="4 2"/>
    </vehicle>
    <vehicle id="0#0.40" depart="360.00">
        <route edges="1 3"/>
    </vehicle>
    <vehicle id="1#0.40" depart="360.00">
        <route edges="4 2"/>
    </vehicle>
    <vehicle id="2#0.20" depart="360.00">
        <route edges="5 7"/>
    </vehicle>
    <vehicle id="3#0.20" depart="360.00">
        <route edges="8 6"/>
    </vehicle>
    <vehicle id="0#0.41" depart="369.00">
        <route edges="1 7"/>
    </vehicle>
    <vehicle id="1#0.41" depart="369.00">
        <route edges="4 7"/>
    </vehicle>
    <vehicle id="0#0.42" depart="378.00">
        <route edges="1 3"/>
    </vehicle>
    <vehicle id="1#0.42" depart="378.00">
        <route edges="4 7"/>
    </vehicle>
    <vehicle id="2#0.21" depart="378.00">
        <route edges="5 7"/>
    </vehicle>
    <vehicle id="3#0.21" depart="378.00">
        <route edges="8 6"/>
    </vehicle>
    <vehicle id="0#0.43" depart="387.00">
        <route edges="1 3"/>
    </vehicle>
    <vehicle id="1#0.43" depart="387.00">
        <route edges="4 2"/>
    </vehicle>
    <vehicle id="0#0.44" depart="396.00">
        <route edges="1 3"/>
    </vehicle>
    <vehicle id="1#0.44" depart="396.00">
        <route edges="4 2"/>
    </vehicle>
    <vehicle id="2#0.22" depart="396.00">
        <route edges="5 7"/>
    </vehicle>
    <vehicle id="3#0.22" depart="396.00">
        <route edges="8 6"/>
    </vehicle>
    <vehicle id="0#0.45" depart="405.00">
        <route edges="1 3"/>
    </vehicle>
    <vehicle id="1#0.45" depart="405.00">
        <route edges="4 2"/>
    </vehicle>
    <vehicle id="0#0.46" depart="414.00">
        <route edges="1 6"/>
    </vehicle>
    <vehicle id="1#0.46" depart="414.00">
        <route edges="4 2"/>
    </vehicle>
    <vehicle id="2#0.23" depart="414.00">
        <route edges="5 7"/>
    </vehicle>
    <vehicle id="3#0.23" depart="414.00">
        <route edges="8 6"/>
    </vehicle>
    <vehicle id="0#0.47" depart="423.00">
        <route edges="1 3"/>
    </vehicle>
    <vehicle id="1#0.47" depart="423.00">
        <route edges="4 2"/>
    </vehicle>
    <vehicle id="0#0.48" depart="432.00">
        <route edges="1 7"/>
    </vehicle>
    <vehicle id="1#0.48" depart="432.00">
        <route edges="4 7"/>
    </vehicle>
    <vehicle id="2#0.24" depart="432.00">
        <route edges="5 7"/>
    </vehicle>
    <vehicle id="3#0.24" depart="432.00">
        <route edges="8 6"/>
    </vehicle>
    <vehicle id="0#0.49" depart="441.00">
        <route edges="1 3"/>
    </vehicle>
    <vehicle id="1#0.49" depart="441.00">
        <route edges="4 2"/>
    </vehicle>
    <vehicle id="0#0.50" depart="450.00">
        <route edges="1 6"/>
    </vehicle>
    <vehicle id="1#0.50" depart="450.00">
        <route edges="4 2"/>
    </vehicle>
    <vehicle id="2#0.25" depart="450.00">
        <route edges="5 7"/>
    </vehicle>
    <vehicle id="3#0.25" depart="450.00">
        <route edges="8 2"/>
    </vehicle>
    <vehicle id="0#0.51" depart="459.00">
        <route edges="1 3"/>
    </vehicle>
    <vehicle id="1#0.51" depart="459.00">
        <route edges="4 7"/>
    </vehicle>
    <vehicle id="0#0.52" depart="468.00">
        <route edges="1 3"/>
    </vehicle>
    <vehicle id="1#0.52" depart="468.00">
        <route edges="4 2"/>
    </vehicle>
    <vehicle id="2#0.26" depart="468.00">
        <route edges="5 7"/>
    </vehicle>
    <vehicle id="3#0.26" depart="468.00">
        <route edges="8 6"/>
    </vehicle>
    <vehicle id="0#0.53" depart="477.00">
        <route edges="1 3"/>
    </vehicle>
    <vehicle id="1#0.53" depart="477.00">
        <route edges="4 7"/>
    </vehicle>
    <vehicle id="0#0.54" depart="486.00">
        <route edges="1 6"/>
    </vehicle>
    <vehicle id="1#0.54" depart="486.00">
        <route edges="4 2"/>
    </vehicle>
    <vehicle id="2#0.27" depart="486.00">
        <route edges="5 7"/>
    </vehicle>
    <vehicle id="3#0.27" depart="486.00">
        <route edges="8 6"/>
    </vehicle>
    <vehicle id="0#0.55" depart="495.00">
        <route edges="1 7"/>
    </vehicle>
    <vehicle id="1#0.55" depart="495.00">
        <route edges="4 6"/>
    </vehicle>
    <vehicle id="0#0.56" depart="504.00">
        <route edges="1 3"/>
    </vehicle>
    <vehicle id="1#0.56" depart="504.00">
        <route edges="4 7"/>
    </vehicle>
    <vehicle id="2#0.28" depart="504.00">
        <route edges="5 7"/>
    </vehicle>
    <vehicle id="3#0.28" depart="504.00">
        <route edges="8 3"/>
    </vehicle>
    <vehicle id="0#0.57" depart="513.00">
        <route edges="1 3"/>
    </vehicle>
    <vehicle id="1#0.57" depart="513.00">
        <route edges="4 2"/>
    </vehicle>
    <vehicle id="0#0.58" depart="522.00">
        <route edges="1 3"/>
    </vehicle>
    <vehicle id="1#0.58" depart="522.00">
        <route edges="4 6"/>
    </vehicle>
    <vehicle id="2#0.29" depart="522.00">
        <route edges="5 7"/>
    </vehicle>
    <vehicle id="3#0.29" depart="522.00">
        <route edges="8 6"/>
    </vehicle>
    <vehicle id="0#0.59" depart="531.00">
        <route edges="1 6"/>
    </vehicle>
    <vehicle id="1#0.59" depart="531.00">
        <route edges="4 2"/>
    </vehicle>
    <vehicle id="0#0.60" depart="540.00">
        <route edges="1 3"/>
    </vehicle>
    <vehicle id="1#0.60" depart="540.00">
        <route edges="4 2"/>
    </vehicle>
    <vehicle id="2#0.30" depart="540.00">
        <route edges="5 7"/>
    </vehicle>
    <vehicle id="3#0.30" depart="540.00">
        <route edges="8 2"/>
    </vehicle>
    <vehicle id="0#0.61" depart="549.00">
        <route edges="1 3"/>
    </vehicle>
    <vehicle id="1#0.61" depart="549.00">
        <route edges="4 2"/>
    </vehicle>
    <vehicle id="0#0.62" depart="558.00">
        <route edges="1 3"/>
    </vehicle>
    <vehicle id="1#0.62" depart="558.00">
        <route edges="4 2"/>
    </vehicle>
    <vehicle id="2#0.31" depart="558.00">
        <route edges="5 7"/>
    </vehicle>
    <vehicle id="3#0.31" depart="558.00">
        <route edges="8 6"/>
    </vehicle>
    <vehicle id="0#0.63" depart="567.00">
        <route edges="1 3"/>
    </vehicle>
    <vehicle id="1#0.63" depart="567.00">
        <route edges="4 7"/>
    </vehicle>
    <vehicle id="0#0.64" depart="576.00">
        <route edges="1 3"/>
    </vehicle>
    <vehicle id="1#0.64" depart="576.00">
        <route edges="4 2"/>
    </vehicle>
    <vehicle id="2#0.32" depart="576.00">
        <route edges="5 3"/>
    </vehicle>
    <vehicle id="3#0.32" depart="576.00">
        <route edges="8 6"/>
    </vehicle>
    <vehicle id="0#0.65" depart="585.00">
        <route edges="1 3"/>
    </vehicle>
    <vehicle id="1#0.65" depart="585.00">
        <route edges="4 7"/>
    </vehicle>
    <vehicle id="0#0.66" depart="594.00">
        <route edges="1 3"/>
    </vehicle>
    <vehicle id="1#0.66" depart="594.00">
        <route edges="4 6"/>
    </vehicle>
    <vehicle id="2#0.33" depart="594.00">
        <route edges="5 7"/>
    </vehicle>
    <vehicle id="3#0.33" depart="594.00">
        <route edges="8 2"/>
    </vehicle>
    <vehicle id="0#0.67" depart="603.00">
        <route edges="1 3"/>
    </vehicle>
    <vehicle id="1#0.67" depart="603.00">
        <route edges="4 2"/>
    </vehicle>
    <vehicle id="0#0.68" depart="612.00">
        <route edges="1 6"/>
    </vehicle>
    <vehicle id="1#0.68" depart="612.00">
        <route edges="4 6"/>
    </vehicle>
    <vehicle id="2#0.34" depart="612.00">
        <route edges="5 7"/>
    </vehicle>
    <vehicle id="3#0.34" depart="612.00">
        <route edges="8 2"/>
    </vehicle>
    <vehicle id="0#0.69" depart="621.00">
        <route edges="1 3"/>
    </vehicle>
    <vehicle id="1#0.69" depart="621.00">
        <route edges="4 2"/>
    </vehicle>
    <vehicle id="0#0.70" depart="630.00">
        <route edges="1 3"/>
    </vehicle>
    <vehicle id="1#0.70" depart="630.00">
        <route edges="4 2"/>
    </vehicle>
    <vehicle id="2#0.35" depart="630.00">
        <route edges="5 7"/>
    </vehicle>
    <vehicle id="3#0.35" depart="630.00">
        <route edges="8 6"/>
    </vehicle>
    <vehicle id="0#0.71" depart="639.00">
        <route edges="1 6"/>
    </vehicle>
    <vehicle id="1#0.71" depart="639.00">
        <route edges="4 2"/>
    </vehicle>
    <vehicle id="0#0.72" depart="648.00">
        <route edges="1 3"/>
    </vehicle>
    <vehicle id="1#0.72" depart="648.00">
        <route edges="4 7"/>
    </vehicle>
    <vehicle id="2#0.36" depart="648.00">
        <route edges="5 7"/>
    </vehicle>
    <vehicle id="3#0.36" depart="648.00">
        <route edges="8 2"/>
    </vehicle>
    <vehicle id="0#0.73" depart="657.00">
        <route edges="1 3"/>
    </vehicle>
    <vehicle id="1#0.73" depart="657.00">
        <route edges="4 2"/>
    </vehicle>
    <vehicle id="0#0.74" depart="666.00">
        <route edges="1 3"/>
    </vehicle>
    <vehicle id="1#0.74" depart="666.00">
        <route edges="4 2"/>
    </vehicle>
    <vehicle id="2#0.37" depart="666.00">
        <route edges="5 7"/>
    </vehicle>
    <vehicle id="3#0.37" depart="666.00">
        <route edges="8 6"/>
    </vehicle>
    <vehicle id="0#0.75" depart="675.00">
        <route edges="1 7"/>
    </vehicle>
    <vehicle id="1#0.75" depart="675.00">
        <route edges="4 2"/>
    </vehicle>
    <vehicle id="0#0.76" depart="684.00">
        <route edges="1 7"/>
    </vehicle>
    <vehicle id="1#0.76" depart="684.00">
        <route edges="4 2"/>
    </vehicle>
    <vehicle id="2#0.38" depart="684.00">
        <route edges="5 3"/>
    </vehicle>
    <vehicle id="3#0.38" depart="684.00">
        <route edges="8 6"/>
    </vehicle>
    <vehicle id="0#0.77" depart="693.00">
        <route edges="1 3"/>
    </vehicle>
    <vehicle id="1#0.77" depart="693.00">
        <route edges="4 2"/>
    </vehicle>
    <vehicle id="0#0.78" depart="702.00">
        <route edges="1 3"/>
    </vehicle>
    <vehicle id="1#0.78" depart="702.00">
        <route edges="4 6"/>
    </vehicle>
    <vehicle id="2#0.39" depart="702.00">
        <route edges="5 7"/>
    </vehicle>
    <vehicle id="3#0.39" depart="702.00">
        <route edges="8 6"/>
    </vehicle>
    <vehicle id="0#0.79" depart="711.00">
        <route edges="1 7"/>
    </vehicle>
    <vehicle id="1#0.79" depart="711.00">
        <route edges="4 2"/>
    </vehicle>
    <vehicle id="0#0.80" depart="720.00">
        <route edges="1 3"/>
    </vehicle>
    <vehicle id="1#0.80" depart="720.00">
        <route edges="4 2"/>
    </vehicle>
    <vehicle id="2#0.40" depart="720.00">
        <route edges="5 7"/>
    </vehicle>
    <vehicle id="3#0.40" depart="720.00">
        <route edges="8 2"/>
    </vehicle>
    <vehicle id="0#0.81" depart="729.00">
        <route edges="1 3"/>
    </vehicle>
    <vehicle id="1#0.81" depart="729.00">
        <route edges="4 2"/>
    </vehicle>
    <vehicle id="0#0.82" depart="738.00">
        <route edges="1 7"/>
    </vehicle>
    <vehicle id="1#0.82" depart="738.00">
        <route edges="4 2"/>
    </vehicle>
    <vehicle id="2#0.41" depart="738.00">
        <route edges="5 7"/>
    </vehicle>
    <vehicle id="3#0.41" depart="738.00">
        <route edges="8 3"/>
    </vehicle>
    <vehicle id="0#0.83" depart="747.00">
        <route edges="1 3"/>
    </vehicle>
    <vehicle id="1#0.83" depart="747.00">
        <route edges="4 6"/>
    </vehicle>
    <vehicle id="0#0.84" depart="756.00">
        <route edges="1 3"/>
    </vehicle>
    <vehicle id="1#0.84" depart="756.00">
        <route edges="4 2"/>
    </vehicle>
    <vehicle id="2#0.42" depart="756.00">
        <route edges="5 7"/>
    </vehicle>
    <vehicle id="3#0.42" depart="756.00">
        <route edges="8 6"/>
    </vehicle>
    <vehicle id="0#0.85" depart="765.00">
        <route edges="1 6"/>
    </vehicle>
    <vehicle id="1#0.85" depart="765.00">
        <route edges="4 6"/>
    </vehicle>
    <vehicle id="0#0.86" depart="774.00">
        <route edges="1 3"/>
    </vehicle>
    <vehicle id="1#0.86" depart="774.00">
        <route edges="4 2"/>
    </vehicle>
    <vehicle id="2#0.43" depart="774.00">
        <route edges="5 7"/>
    </vehicle>
    <vehicle id="3#0.43" depart="774.00">
        <route edges="8 6"/>
    </vehicle>
    <vehicle id="0#0.87" depart="783.00">
        <route edges="1 3"/>
    </vehicle>
    <vehicle id="1#0.87" depart="783.00">
        <route edges="4 2"/>
    </vehicle>
    <vehicle id="0#0.88" depart="792.00">
        <route edges="1 3"/>
    </vehicle>
    <vehicle id="1#0.88" depart="792.00">
        <route edges="4 2"/>
    </vehicle>
    <vehicle id="2#0.44" depart="792.00">
        <route edges="5 7"/>
    </vehicle>
    <vehicle id="3#0.44" depart="792.00">
        <route edges="8 3"/>
    </vehicle>
    <vehicle id="0#0.89" depart="801.00">
        <route edges="1 7"/>
    </vehicle>
    <vehicle id="1#0.89" depart="801.00">
        <route edges="4 7"/>
    </vehicle>
    <vehicle id="0#0.90" depart="810.00">
        <route edges="1 3"/>
    </vehicle>
    <vehicle id="1#0.90" depart="810.00">
        <route edges="4 2"/>
    </vehicle>
    <vehicle id="2#0.45" depart="810.00">
        <route edges="5 7"/>
    </vehicle>
    <vehicle id="3#0.45" depart="810.00">
        <route edges="8 6"/>
    </vehicle>
    <vehicle id="0#0.91" depart="819.00">
        <route edges="1 3"/>
    </vehicle>
    <vehicle id="1#0.91" depart="819.00">
        <route edges="4 2"/>
    </vehicle>
    <vehicle id="0#0.92" depart="828.00">
        <route edges="1 7"/>
    </vehicle>
    <vehicle id="1#0.92" depart="828.00">
        <route edges="4 6"/>
    </vehicle>
    <vehicle id="2#0.46" depart="828.00">
        <route edges="5 7"/>
    </vehicle>
    <vehicle id="3#0.46" depart="828.00">
        <route edges="8 6"/>
    </vehicle>
    <vehicle id="0#0.93" depart="837.00">
        <route edges="1 3"/>
    </vehicle>
    <vehicle id="1#0.93" depart="837.00">
        <route edges="4 2"/>
    </vehicle>
    <vehicle id="0#0.94" depart="846.00">
        <route edges="1 3"/>
    </vehicle>
    <vehicle id="1#0.94" depart="846.00">
        <route edges="4 2"/>
    </vehicle>
    <vehicle id="2#0.47" depart="846.00">
        <route edges="5 3"/>
    </vehicle>
    <vehicle id="3#0.47" depart="846.00">
        <route edges="8 6"/>
    </vehicle>
    <vehicle id="0#0.95" depart="855.00">
        <route edges="1 6"/>
    </vehicle>
    <vehicle id="1#0.95" depart="855.00">
        <route edges="4 2"/>
    </vehicle>
    <vehicle id="0#0.96" depart="864.00">
        <route edges="1 7"/>
    </vehicle>
    <vehicle id="1#0.96" depart="864.00">
        <route edges="4 2"/>
    </vehicle>
    <vehicle id="2#0.48" depart="864.00">
        <route edges="5 7"/>
    </vehicle>
    <vehicle id="3#0.48" depart="864.00">
        <route edges="8 6"/>
    </vehicle>
    <vehicle id="0#0.97" depart="873.00">
        <route edges="1 3"/>
    </vehicle>
    <vehicle id="1#0.97" depart="873.00">
        <route edges="4 2"/>
    </vehicle>
    <vehicle id="0#0.98" depart="882.00">
        <route edges="1 7"/>
    </vehicle>
    <vehicle id="1#0.98" depart="882.00">
        <route edges="4 7"/>
    </vehicle>
    <vehicle id="2#0.49" depart="882.00">
        <route edges="5 7"/>
    </vehicle>
    <vehicle id="3#0.49" depart="882.00">
        <route edges="8 6"/>
    </vehicle>
    <vehicle id="0#0.99" depart="891.00">
        <route edges="1 3"/>
    </vehicle>
    <vehicle id="1#0.99" depart="891.00">
        <route edges="4 7"/>
    </vehicle>
    <vehicle id="0#0.100" depart="900.00">
        <route edges="1 7"/>
    </vehicle>
    <vehicle id="1#0.100" depart="900.00">
        <route edges="4 6"/>
    </vehicle>
    <vehicle id="2#0.50" depart="900.00">
        <route edges="5 7"/>
    </vehicle>
    <vehicle id="3#0.50" depart="900.00">
        <route edges="8 2"/>
    </vehicle>
    <vehicle id="0#0.101" depart="909.00">
        <route edges="1 3"/>
    </vehicle>
    <vehicle id="1#0.101" depart="909.00">
        <route edges="4 7"/>
    </vehicle>
    <vehicle id="0#0.102" depart="918.00">
        <route edges="1 6"/>
    </vehicle>
    <vehicle id="1#0.102" depart="918.00">
        <route edges="4 2"/>
    </vehicle>
    <vehicle id="2#0.51" depart="918.00">
        <route edges="5 2"/>
    </vehicle>
    <vehicle id="3#0.51" depart="918.00">
        <route edges="8 6"/>
    </vehicle>
    <vehicle id="0#0.103" depart="927.00">
        <route edges="1 3"/>
    </vehicle>
    <vehicle id="1#0.103" depart="927.00">
        <route edges="4 2"/>
    </vehicle>
    <vehicle id="0#0.104" depart="936.00">
        <route edges="1 7"/>
    </vehicle>
    <vehicle id="1#0.104" depart="936.00">
        <route edges="4 7"/>
    </vehicle>
    <vehicle id="2#0.52" depart="936.00">
        <route edges="5 3"/>
    </vehicle>
    <vehicle id="3#0.52" depart="936.00">
        <route edges="8 2"/>
    </vehicle>
    <vehicle id="0#0.105" depart="945.00">
        <route edges="1 3"/>
    </vehicle>
    <vehicle id="1#0.105" depart="945.00">
        <route edges="4 2"/>
    </vehicle>
    <vehicle id="0#0.106" depart="954.00">
        <route edges="1 3"/>
    </vehicle>
    <vehicle id="1#0.106" depart="954.00">
        <route edges="4 2"/>
    </vehicle>
    <vehicle id="2#0.53" depart="954.00">
        <route edges="5 7"/>
    </vehicle>
    <vehicle id="3#0.53" depart="954.00">
        <route edges="8 6"/>
    </vehicle>
    <vehicle id="0#0.107" depart="963.00">
        <route edges="1 6"/>
    </vehicle>
    <vehicle id="1#0.107" depart="963.00">
        <route edges="4 2"/>
    </vehicle>
    <vehicle id="0#0.108" depart="972.00">
        <route edges="1 6"/>
    </vehicle>
    <vehicle id="1#0.108" depart="972.00">
        <route edges="4 7"/>
    </vehicle>
    <vehicle id="2#0.54" depart="972.00">
        <route edges="5 7"/>
    </vehicle>
    <vehicle id="3#0.54" depart="972.00">
        <route edges="8 3"/>
    </vehicle>
    <vehicle id="0#0.109" depart="981.00">
        <route edges="1 3"/>
    </vehicle>
    <vehicle id="1#0.109" depart="981.00">
        <route edges="4 2"/>
    </vehicle>
    <vehicle id="0#0.110" depart="990.00">
        <route edges="1 6"/>
    </vehicle>
    <vehicle id="1#0.110" depart="990.00">
        <route edges="4 2"/>
    </vehicle>
    <vehicle id="2#0.55" depart="990.00">
        <route edges="5 3"/>
    </vehicle>
    <vehicle id="3#0.55" depart="990.00">
        <route edges="8 6"/>
    </vehicle>
    <vehicle id="0#0.111" depart="999.00">
        <route edges="1 3"/>
    </vehicle>
    <vehicle id="1#0.111" depart="999.00">
        <route edges="4 2"/>
    </vehicle>
    <vehicle id="0#0.112" depart="1008.00">
        <route edges="1 3"/>
    </vehicle>
    <vehicle id="1#0.112" depart="1008.00">
        <route edges="4 2"/>
    </vehicle>
    <vehicle id="2#0.56" depart="1008.00">
        <route edges="5 7"/>
    </vehicle>
    <vehicle id="3#0.56" depart="1008.00">