<?xml version="1.0" encoding="UTF-8"?>

<!-- generated on 2023-05-07 16:32:29 by Eclipse SUMO jtrrouter Version 1.16.0
<configuration xmlns:xsi="http://www.w3.org/2001/XMLSchema-instance" xsi:noNamespaceSchemaLocation="http://sumo.dlr.de/xsd/jtrrouterConfiguration.xsd">

    <input>
        <net-file value=".\SUMO_Input\net\Test4.net.xml"/>
        <route-files value=".\SUMO_Input\route\Test4.trip.xml"/>
        <turn-ratio-files value=".\SUMO_Input\route\Test4.turndefs.xml"/>
    </input>

    <output>
        <output-file value=".\SUMO_Input\route\Test4.rou.xml"/>
    </output>

    <processing>
        <accept-all-destinations value="true"/>
    </processing>

</configuration>
-->

<routes xmlns:xsi="http://www.w3.org/2001/XMLSchema-instance" xsi:noNamespaceSchemaLocation="http://sumo.dlr.de/xsd/routes_file.xsd">
    <vehicle id="0#1.0" depart="0.00">
        <route edges="1 6"/>
    </vehicle>
    <vehicle id="1#1.0" depart="0.00">
        <route edges="4 6"/>
    </vehicle>
    <vehicle id="2#1.0" depart="0.00">
        <route edges="5 2"/>
    </vehicle>
    <vehicle id="3#1.0" depart="0.00">
        <route edges="8 6"/>
    </vehicle>
    <vehicle id="0#1.1" depart="9.00">
        <route edges="1 3"/>
    </vehicle>
    <vehicle id="1#1.1" depart="9.00">
        <route edges="4 2"/>
    </vehicle>
    <vehicle id="0#1.2" depart="18.00">
        <route edges="1 6"/>
    </vehicle>
    <vehicle id="1#1.2" depart="18.00">
        <route edges="4 2"/>
    </vehicle>
    <vehicle id="2#1.1" depart="18.00">
        <route edges="5 7"/>
    </vehicle>
    <vehicle id="3#1.1" depart="18.00">
        <route edges="8 6"/>
    </vehicle>
    <vehicle id="0#1.3" depart="27.00">
        <route edges="1 3"/>
    </vehicle>
    <vehicle id="1#1.3" depart="27.00">
        <route edges="4 2"/>
    </vehicle>
    <vehicle id="0#1.4" depart="36.00">
        <route edges="1 3"/>
    </vehicle>
    <vehicle id="1#1.4" depart="36.00">
        <route edges="4 2"/>
    </vehicle>
    <vehicle id="2#1.2" depart="36.00">
        <route edges="5 7"/>
    </vehicle>
    <vehicle id="3#1.2" depart="36.00">
        <route edges="8 3"/>
    </vehicle>
    <vehicle id="0#1.5" depart="45.00">
        <route edges="1 3"/>
    </vehicle>
    <vehicle id="1#1.5" depart="45.00">
        <route edges="4 7"/>
    </vehicle>
    <vehicle id="0#1.6" depart="54.00">
        <route edges="1 3"/>
    </vehicle>
    <vehicle id="1#1.6" depart="54.00">
        <route edges="4 2"/>
    </vehicle>
    <vehicle id="2#1.3" depart="54.00">
        <route edges="5 2"/>
    </vehicle>
    <vehicle id="3#1.3" depart="54.00">
        <route edges="8 6"/>
    </vehicle>
    <vehicle id="0#1.7" depart="63.00">
        <route edges="1 3"/>
    </vehicle>
    <vehicle id="1#1.7" depart="63.00">
        <route edges="4 2"/>
    </vehicle>
    <vehicle id="0#1.8" depart="72.00">
        <route edges="1 7"/>
    </vehicle>
    <vehicle id="1#1.8" depart="72.00">
        <route edges="4 7"/>
    </vehicle>
    <vehicle id="2#1.4" depart="72.00">
        <route edges="5 7"/>
    </vehicle>
    <vehicle id="3#1.4" depart="72.00">
        <route edges="8 6"/>
    </vehicle>
    <vehicle id="0#1.9" depart="81.00">
        <route edges="1 3"/>
    </vehicle>
    <vehicle id="1#1.9" depart="81.00">
        <route edges="4 2"/>
    </vehicle>
    <vehicle id="0#1.10" depart="90.00">
        <route edges="1 3"/>
    </vehicle>
    <vehicle id="1#1.10" depart="90.00">
        <route edges="4 2"/>
    </vehicle>
    <vehicle id="2#1.5" depart="90.00">
        <route edges="5 7"/>
    </vehicle>
    <vehicle id="3#1.5" depart="90.00">
        <route edges="8 2"/>
    </vehicle>
    <vehicle id="0#1.11" depart="99.00">
        <route edges="1 7"/>
    </vehicle>
    <vehicle id="1#1.11" depart="99.00">
        <route edges="4 2"/>
    </vehicle>
    <vehicle id="0#1.12" depart="108.00">
        <route edges="1 3"/>
    </vehicle>
    <vehicle id="1#1.12" depart="108.00">
        <route edges="4 2"/>
    </vehicle>
    <vehicle id="2#1.6" depart="108.00">
        <route edges="5 3"/>
    </vehicle>
    <vehicle id="3#1.6" depart="108.00">
        <route edges="8 2"/>
    </vehicle>
    <vehicle id="0#1.13" depart="117.00">
        <route edges="1 3"/>
    </vehicle>
    <vehicle id="1#1.13" depart="117.00">
        <route edges="4 7"/>
    </vehicle>
    <vehicle id="0#1.14" depart="126.00">
        <route edges="1 3"/>
    </vehicle>
    <vehicle id="1#1.14" depart="126.00">
        <route edges="4 2"/>
    </vehicle>
    <vehicle id="2#1.7" depart="126.00">
        <route edges="5 3"/>
    </vehicle>
    <vehicle id="3#1.7" depart="126.00">
        <route edges="8 6"/>
    </vehicle>
    <vehicle id="0#1.15" depart="135.00">
        <route edges="1 3"/>
    </vehicle>
    <vehicle id="1#1.15" depart="135.00">
        <route edges="4 7"/>
    </vehicle>
    <vehicle id="0#1.16" depart="144.00">
        <route edges="1 3"/>
    </vehicle>
    <vehicle id="1#1.16" depart="144.00">
        <route edges="4 2"/>
    </vehicle>
    <vehicle id="2#1.8" depart="144.00">
        <route edges="5 7"/>
    </vehicle>
    <vehicle id="3#1.8" depart="144.00">
        <route edges="8 6"/>
    </vehicle>
    <vehicle id="0#1.17" depart="153.00">
        <route edges="1 3"/>
    </vehicle>
    <vehicle id="1#1.17" depart="153.00">
        <route edges="4 7"/>
    </vehicle>
    <vehicle id="0#1.18" depart="162.00">
        <route edges="1 7"/>
    </vehicle>
    <vehicle id="1#1.18" depart="162.00">
        <route edges="4 2"/>
    </vehicle>
    <vehicle id="2#1.9" depart="162.00">
        <route edges="5 7"/>
    </vehicle>
    <vehicle id="3#1.9" depart="162.00">
        <route edges="8 6"/>
    </vehicle>
    <vehicle id="0#1.19" depart="171.00">
        <route edges="1 3"/>
    </vehicle>
    <vehicle id="1#1.19" depart="171.00">
        <route edges="4 7"/>
    </vehicle>
    <vehicle id="0#1.20" depart="180.00">
        <route edges="1 3"/>
    </vehicle>
    <vehicle id="1#1.20" depart="180.00">
        <route edges="4 2"/>
    </vehicle>
    <vehicle id="2#1.10" depart="180.00">
        <route edges="5 3"/>
    </vehicle>
    <vehicle id="3#1.10" depart="180.00">
        <route edges="8 2"/>
    </vehicle>
    <vehicle id="0#1.21" depart="189.00">
        <route edges="1 3"/>
    </vehicle>
    <vehicle id="1#1.21" depart="189.00">
        <route edges="4 2"/>
    </vehicle>
    <vehicle id="0#1.22" depart="198.00">
        <route edges="1 7"/>
    </vehicle>
    <vehicle id="1#1.22" depart="198.00">
        <route edges="4 2"/>
    </vehicle>
    <vehicle id="2#1.11" depart="198.00">
        <route edges="5 3"/>
    </vehicle>
    <vehicle id="3#1.11" depart="198.00">
        <route edges="8 6"/>
    </vehicle>
    <vehicle id="0#1.23" depart="207.00">
        <route edges="1 3"/>
    </vehicle>
    <vehicle id="1#1.23" depart="207.00">
        <route edges="4 2"/>
    </vehicle>
    <vehicle id="0#1.24" depart="216.00">
        <route edges="1 3"/>
    </vehicle>
    <vehicle id="1#1.24" depart="216.00">
        <route edges="4 2"/>
    </vehicle>
    <vehicle id="2#1.12" depart="216.00">
        <route edges="5 3"/>
    </vehicle>
    <vehicle id="3#1.12" depart="216.00">
        <route edges="8 2"/>
    </vehicle>
    <vehicle id="0#1.25" depart="225.00">
        <route edges="1 3"/>
    </vehicle>
    <vehicle id="1#1.25" depart="225.00">
        <route edges="4 2"/>
    </vehicle>
    <vehicle id="0#1.26" depart="234.00">
        <route edges="1 6"/>
    </vehicle>
    <vehicle id="1#1.26" depart="234.00">
        <route edges="4 2"/>
    </vehicle>
    <vehicle id="2#1.13" depart="234.00">
        <route edges="5 3"/>
    </vehicle>
    <vehicle id="3#1.13" depart="234.00">
        <route edges="8 3"/>
    </vehicle>
    <vehicle id="0#1.27" depart="243.00">
        <route edges="1 3"/>
    </vehicle>
    <vehicle id="1#1.27" depart="243.00">
        <route edges="4 2"/>
    </vehicle>
    <vehicle id="0#1.28" depart="252.00">
        <route edges="1 3"/>
    </vehicle>
    <vehicle id="1#1.28" depart="252.00">
        <route edges="4 2"/>
    </vehicle>
    <vehicle id="2#1.14" depart="252.00">
        <route edges="5 7"/>
    </vehicle>
    <vehicle id="3#1.14" depart="252.00">
        <route edges="8 6"/>
    </vehicle>
    <vehicle id="0#1.29" depart="261.00">
        <route edges="1 3"/>
    </vehicle>
    <vehicle id="1#1.29" depart="261.00">
        <route edges="4 2"/>
    </vehicle>
    <vehicle id="0#1.30" depart="270.00">
        <route edges="1 3"/>
    </vehicle>
    <vehicle id="1#1.30" depart="270.00">
        <route edges="4 7"/>
    </vehicle>
    <vehicle id="2#1.15" depart="270.00">
        <route edges="5 2"/>
    </vehicle>
    <vehicle id="3#1.15" depart="270.00">
        <route edges="8 6"/>
    </vehicle>
    <vehicle id="0#1.31" depart="279.00">
        <route edges="1 3"/>
    </vehicle>
    <vehicle id="1#1.31" depart="279.00">
        <route edges="4 7"/>
    </vehicle>
    <vehicle id="0#1.32" depart="288.00">
        <route edges="1 3"/>
    </vehicle>
    <vehicle id="1#1.32" depart="288.00">
        <route edges="4 7"/>
    </vehicle>
    <vehicle id="2#1.16" depart="288.00">
        <route edges="5 7"/>
    </vehicle>
    <vehicle id="3#1.16" depart="288.00">
        <route edges="8 6"/>
    </vehicle>
    <vehicle id="0#1.33" depart="297.00">
        <route edges="1 6"/>
    </vehicle>
    <vehicle id="1#1.33" depart="297.00">
        <route edges="4 2"/>
    </vehicle>
    <vehicle id="0#1.34" depart="306.00">
        <route edges="1 6"/>
    </vehicle>
    <vehicle id="1#1.34" depart="306.00">
        <route edges="4 2"/>
    </vehicle>
    <vehicle id="2#1.17" depart="306.00">
        <route edges="5 7"/>
    </vehicle>
    <vehicle id="3#1.17" depart="306.00">
        <route edges="8 3"/>
    </vehicle>
    <vehicle id="0#1.35" depart="315.00">
        <route edges="1 3"/>
    </vehicle>
    <vehicle id="1#1.35" depart="315.00">
        <route edges="4 2"/>
    </vehicle>
    <vehicle id="0#1.36" depart="324.00">
        <route edges="1 3"/>
    </vehicle>
    <vehicle id="1#1.36" depart="324.00">
        <route edges="4 2"/>
    </vehicle>
    <vehicle id="2#1.18" depart="324.00">
        <route edges="5 7"/>
    </vehicle>
    <vehicle id="3#1.18" depart="324.00">
        <route edges="8 6"/>
    </vehicle>
    <vehicle id="0#1.37" depart="333.00">
        <route edges="1 6"/>
    </vehicle>
    <vehicle id="1#1.37" depart="333.00">
        <route edges="4 2"/>
    </vehicle>
    <vehicle id="0#1.38" depart="342.00">
        <route edges="1 6"/>
    </vehicle>
    <vehicle id="1#1.38" depart="342.00">
        <route edges="4 2"/>
    </vehicle>
    <vehicle id="2#1.19" depart="342.00">
        <route edges="5 7"/>
    </vehicle>
    <vehicle id="3#1.19" depart="342.00">
        <route edges="8 2"/>
    </vehicle>
    <vehicle id="0#1.39" depart="351.00">
        <route edges="1 6"/>
    </vehicle>
    <vehicle id="1#1.39" depart="351.00">
        <route edges="4 2"/>
    </vehicle>
    <vehicle id="0#1.40" depart="360.00">
        <route edges="1 3"/>
    </vehicle>
    <vehicle id="1#1.40" depart="360.00">
        <route edges="4 2"/>
    </vehicle>
    <vehicle id="2#1.20" depart="360.00">
        <route edges="5 7"/>
    </vehicle>
    <vehicle id="3#1.20" depart="360.00">
        <route edges="8 6"/>
    </vehicle>
    <vehicle id="0#1.41" depart="369.00">
        <route edges="1 7"/>
    </vehicle>
    <vehicle id="1#1.41" depart="369.00">
        <route edges="4 7"/>
    </vehicle>
    <vehicle id="0#1.42" depart="378.00">
        <route edges="1 3"/>
    </vehicle>
    <vehicle id="1#1.42" depart="378.00">
        <route edges="4 7"/>
    </vehicle>
    <vehicle id="2#1.21" depart="378.00">
        <route edges="5 7"/>
    </vehicle>
    <vehicle id="3#1.21" depart="378.00">
        <route edges="8 6"/>
    </vehicle>
    <vehicle id="0#1.43" depart="387.00">
        <route edges="1 3"/>
    </vehicle>
    <vehicle id="1#1.43" depart="387.00">
        <route edges="4 2"/>
    </vehicle>
    <vehicle id="0#1.44" depart="396.00">
        <route edges="1 3"/>
    </vehicle>
    <vehicle id="1#1.44" depart="396.00">
        <route edges="4 2"/>
    </vehicle>
    <vehicle id="2#1.22" depart="396.00">
        <route edges="5 7"/>
    </vehicle>
    <vehicle id="3#1.22" depart="396.00">
        <route edges="8 6"/>
    </vehicle>
    <vehicle id="0#1.45" depart="405.00">
        <route edges="1 3"/>
    </vehicle>
    <vehicle id="1#1.45" depart="405.00">
        <route edges="4 2"/>
    </vehicle>
    <vehicle id="0#1.46" depart="414.00">
        <route edges="1 6"/>
    </vehicle>
    <vehicle id="1#1.46" depart="414.00">
        <route edges="4 2"/>
    </vehicle>
    <vehicle id="2#1.23" depart="414.00">
        <route edges="5 7"/>
    </vehicle>
    <vehicle id="3#1.23" depart="414.00">
        <route edges="8 6"/>
    </vehicle>
    <vehicle id="0#1.47" depart="423.00">
        <route edges="1 3"/>
    </vehicle>
    <vehicle id="1#1.47" depart="423.00">
        <route edges="4 2"/>
    </vehicle>
    <vehicle id="0#1.48" depart="432.00">
        <route edges="1 7"/>
    </vehicle>
    <vehicle id="1#1.48" depart="432.00">
        <route edges="4 7"/>
    </vehicle>
    <vehicle id="2#1.24" depart="432.00">
        <route edges="5 7"/>
    </vehicle>
    <vehicle id="3#1.24" depart="432.00">
        <route edges="8 6"/>
    </vehicle>
    <vehicle id="0#1.49" depart="441.00">
        <route edges="1 3"/>
    </vehicle>
    <vehicle id="1#1.49" depart="441.00">
        <route edges="4 2"/>
    </vehicle>
    <vehicle id="0#1.50" depart="450.00">
        <route edges="1 6"/>
    </vehicle>
    <vehicle id="1#1.50" depart="450.00">
        <route edges="4 2"/>
    </vehicle>
    <vehicle id="2#1.25" depart="450.00">
        <route edges="5 7"/>
    </vehicle>
    <vehicle id="3#1.25" depart="450.00">
        <route edges="8 2"/>
    </vehicle>
    <vehicle id="0#1.51" depart="459.00">
        <route edges="1 3"/>
    </vehicle>
    <vehicle id="1#1.51" depart="459.00">
        <route edges="4 7"/>
    </vehicle>
    <vehicle id="0#1.52" depart="468.00">
        <route edges="1 3"/>
    </vehicle>
    <vehicle id="1#1.52" depart="468.00">
        <route edges="4 2"/>
    </vehicle>
    <vehicle id="2#1.26" depart="468.00">
        <route edges="5 7"/>
    </vehicle>
    <vehicle id="3#1.26" depart="468.00">
        <route edges="8 6"/>
    </vehicle>
    <vehicle id="0#1.53" depart="477.00">
        <route edges="1 3"/>
    </vehicle>
    <vehicle id="1#1.53" depart="477.00">
        <route edges="4 7"/>
    </vehicle>
    <vehicle id="0#1.54" depart="486.00">
        <route edges="1 6"/>
    </vehicle>
    <vehicle id="1#1.54" depart="486.00">
        <route edges="4 2"/>
    </vehicle>
    <vehicle id="2#1.27" depart="486.00">
        <route edges="5 7"/>
    </vehicle>
    <vehicle id="3#1.27" depart="486.00">
        <route edges="8 6"/>
    </vehicle>
    <vehicle id="0#1.55" depart="495.00">
        <route edges="1 7"/>
    </vehicle>
    <vehicle id="1#1.55" depart="495.00">
        <route edges="4 6"/>
    </vehicle>
    <vehicle id="0#1.56" depart="504.00">
        <route edges="1 3"/>
    </vehicle>
    <vehicle id="1#1.56" depart="504.00">
        <route edges="4 7"/>
    </vehicle>
    <vehicle id="2#1.28" depart="504.00">
        <route edges="5 7"/>
    </vehicle>
    <vehicle id="3#1.28" depart="504.00">
        <route edges="8 3"/>
    </vehicle>
    <vehicle id="0#1.57" depart="513.00">
        <route edges="1 3"/>
    </vehicle>
    <vehicle id="1#1.57" depart="513.00">
        <route edges="4 2"/>
    </vehicle>
    <vehicle id="0#1.58" depart="522.00">
        <route edges="1 3"/>
    </vehicle>
    <vehicle id="1#1.58" depart="522.00">
        <route edges="4 6"/>
    </vehicle>
    <vehicle id="2#1.29" depart="522.00">
        <route edges="5 7"/>
    </vehicle>
    <vehicle id="3#1.29" depart="522.00">
        <route edges="8 6"/>
    </vehicle>
    <vehicle id="0#1.59" depart="531.00">
        <route edges="1 6"/>
    </vehicle>
    <vehicle id="1#1.59" depart="531.00">
        <route edges="4 2"/>
    </vehicle>
    <vehicle id="0#1.60" depart="540.00">
        <route edges="1 3"/>
    </vehicle>
    <vehicle id="1#1.60" depart="540.00">
        <route edges="4 2"/>
    </vehicle>
    <vehicle id="2#1.30" depart="540.00">
        <route edges="5 7"/>
    </vehicle>
    <vehicle id="3#1.30" depart="540.00">
        <route edges="8 2"/>
    </vehicle>
    <vehicle id="0#1.61" depart="549.00">
        <route edges="1 3"/>
    </vehicle>
    <vehicle id="1#1.61" depart="549.00">
        <route edges="4 2"/>
    </vehicle>
    <vehicle id="0#1.62" depart="558.00">
        <route edges="1 3"/>
    </vehicle>
    <vehicle id="1#1.62" depart="558.00">
        <route edges="4 2"/>
    </vehicle>
    <vehicle id="2#1.31" depart="558.00">
        <route edges="5 7"/>
    </vehicle>
    <vehicle id="3#1.31" depart="558.00">
        <route edges="8 6"/>
    </vehicle>
    <vehicle id="0#1.63" depart="567.00">
        <route edges="1 3"/>
    </vehicle>
    <vehicle id="1#1.63" depart="567.00">
        <route edges="4 7"/>
    </vehicle>
    <vehicle id="0#1.64" depart="576.00">
        <route edges="1 3"/>
    </vehicle>
    <vehicle id="1#1.64" depart="576.00">
        <route edges="4 2"/>
    </vehicle>
    <vehicle id="2#1.32" depart="576.00">
        <route edges="5 3"/>
    </vehicle>
    <vehicle id="3#1.32" depart="576.00">
        <route edges="8 6"/>
    </vehicle>
    <vehicle id="0#1.65" depart="585.00">
        <route edges="1 3"/>
    </vehicle>
    <vehicle id="1#1.65" depart="585.00">
        <route edges="4 7"/>
    </vehicle>
    <vehicle id="0#1.66" depart="594.00">
        <route edges="1 3"/>
    </vehicle>
    <vehicle id="1#1.66" depart="594.00">
        <route edges="4 6"/>
    </vehicle>
    <vehicle id="2#1.33" depart="594.00">
        <route edges="5 7"/>
    </vehicle>
    <vehicle id="3#1.33" depart="594.00">
        <route edges="8 2"/>
    </vehicle>
    <vehicle id="0#1.67" depart="603.00">
        <route edges="1 3"/>
    </vehicle>
    <vehicle id="1#1.67" depart="603.00">
        <route edges="4 2"/>
    </vehicle>
    <vehicle id="0#1.68" depart="612.00">
        <route edges="1 6"/>
    </vehicle>
    <vehicle id="1#1.68" depart="612.00">
        <route edges="4 6"/>
    </vehicle>
    <vehicle id="2#1.34" depart="612.00">
        <route edges="5 7"/>
    </vehicle>
    <vehicle id="3#1.34" depart="612.00">
        <route edges="8 2"/>
    </vehicle>
    <vehicle id="0#1.69" depart="621.00">
        <route edges="1 3"/>
    </vehicle>
    <vehicle id="1#1.69" depart="621.00">
        <route edges="4 2"/>
    </vehicle>
    <vehicle id="0#1.70" depart="630.00">
        <route edges="1 3"/>
    </vehicle>
    <vehicle id="1#1.70" depart="630.00">
        <route edges="4 2"/>
    </vehicle>
    <vehicle id="2#1.35" depart="630.00">
        <route edges="5 7"/>
    </vehicle>
    <vehicle id="3#1.35" depart="630.00">
        <route edges="8 6"/>
    </vehicle>
    <vehicle id="0#1.71" depart="639.00">
        <route edges="1 6"/>
    </vehicle>
    <vehicle id="1#1.71" depart="639.00">
        <route edges="4 2"/>
    </vehicle>
    <vehicle id="0#1.72" depart="648.00">
        <route edges="1 3"/>
    </vehicle>
    <vehicle id="1#1.72" depart="648.00">
        <route edges="4 7"/>
    </vehicle>
    <vehicle id="2#1.36" depart="648.00">
        <route edges="5 7"/>
    </vehicle>
    <vehicle id="3#1.36" depart="648.00">
        <route edges="8 2"/>
    </vehicle>
    <vehicle id="0#1.73" depart="657.00">
        <route edges="1 3"/>
    </vehicle>
    <vehicle id="1#1.73" depart="657.00">
        <route edges="4 2"/>
    </vehicle>
    <vehicle id="0#1.74" depart="666.00">
        <route edges="1 3"/>
    </vehicle>
    <vehicle id="1#1.74" depart="666.00">
        <route edges="4 2"/>
    </vehicle>
    <vehicle id="2#1.37" depart="666.00">
        <route edges="5 7"/>
    </vehicle>
    <vehicle id="3#1.37" depart="666.00">
        <route edges="8 6"/>
    </vehicle>
    <vehicle id="0#1.75" depart="675.00">
        <route edges="1 7"/>
    </vehicle>
    <vehicle id="1#1.75" depart="675.00">
        <route edges="4 2"/>
    </vehicle>
    <vehicle id="0#1.76" depart="684.00">
        <route edges="1 7"/>
    </vehicle>
    <vehicle id="1#1.76" depart="684.00">
        <route edges="4 2"/>
    </vehicle>
    <vehicle id="2#1.38" depart="684.00">
        <route edges="5 3"/>
    </vehicle>
    <vehicle id="3#1.38" depart="684.00">
        <route edges="8 6"/>
    </vehicle>
    <vehicle id="0#1.77" depart="693.00">
        <route edges="1 3"/>
    </vehicle>
    <vehicle id="1#1.77" depart="693.00">
        <route edges="4 2"/>
    </vehicle>
    <vehicle id="0#1.78" depart="702.00">
        <route edges="1 3"/>
    </vehicle>
    <vehicle id="1#1.78" depart="702.00">
        <route edges="4 6"/>
    </vehicle>
    <vehicle id="2#1.39" depart="702.00">
        <route edges="5 7"/>
    </vehicle>
    <vehicle id="3#1.39" depart="702.00">
        <route edges="8 6"/>
    </vehicle>
    <vehicle id="0#1.79" depart="711.00">
        <route edges="1 7"/>
    </vehicle>
    <vehicle id="1#1.79" depart="711.00">
        <route edges="4 2"/>
    </vehicle>
    <vehicle id="0#1.80" depart="720.00">
        <route edges="1 3"/>
    </vehicle>
    <vehicle id="1#1.80" depart="720.00">
        <route edges="4 2"/>
    </vehicle>
    <vehicle id="2#1.40" depart="720.00">
        <route edges="5 7"/>
    </vehicle>
    <vehicle id="3#1.40" depart="720.00">
        <route edges="8 2"/>
    </vehicle>
    <vehicle id="0#1.81" depart="729.00">
        <route edges="1 3"/>
    </vehicle>
    <vehicle id="1#1.81" depart="729.00">
        <route edges="4 2"/>
    </vehicle>
    <vehicle id="0#1.82" depart="738.00">
        <route edges="1 7"/>
    </vehicle>
    <vehicle id="1#1.82" depart="738.00">
        <route edges="4 2"/>
    </vehicle>
    <vehicle id="2#1.41" depart="738.00">
        <route edges="5 7"/>
    </vehicle>
    <vehicle id="3#1.41" depart="738.00">
        <route edges="8 3"/>
    </vehicle>
    <vehicle id="0#1.83" depart="747.00">
        <route edges="1 3"/>
    </vehicle>
    <vehicle id="1#1.83" depart="747.00">
        <route edges="4 6"/>
    </vehicle>
    <vehicle id="0#1.84" depart="756.00">
        <route edges="1 3"/>
    </vehicle>
    <vehicle id="1#1.84" depart="756.00">
        <route edges="4 2"/>
    </vehicle>
    <vehicle id="2#1.42" depart="756.00">
        <route edges="5 7"/>
    </vehicle>
    <vehicle id="3#1.42" depart="756.00">
        <route edges="8 6"/>
    </vehicle>
    <vehicle id="0#1.85" depart="765.00">
        <route edges="1 6"/>
    </vehicle>
    <vehicle id="1#1.85" depart="765.00">
        <route edges="4 6"/>
    </vehicle>
    <vehicle id="0#1.86" depart="774.00">
        <route edges="1 3"/>
    </vehicle>
    <vehicle id="1#1.86" depart="774.00">
        <route edges="4 2"/>
    </vehicle>
    <vehicle id="2#1.43" depart="774.00">
        <route edges="5 7"/>
    </vehicle>
    <vehicle id="3#1.43" depart="774.00">
        <route edges="8 6"/>
    </vehicle>
    <vehicle id="0#1.87" depart="783.00">
        <route edges="1 3"/>
    </vehicle>
    <vehicle id="1#1.87" depart="783.00">
        <route edges="4 2"/>
    </vehicle>
    <vehicle id="0#1.88" depart="792.00">
        <route edges="1 3"/>
    </vehicle>
    <vehicle id="1#1.88" depart="792.00">
        <route edges="4 2"/>
    </vehicle>
    <vehicle id="2#1.44" depart="792.00">
        <route edges="5 7"/>
    </vehicle>
    <vehicle id="3#1.44" depart="792.00">
        <route edges="8 3"/>
    </vehicle>
    <vehicle id="0#1.89" depart="801.00">
        <route edges="1 7"/>
    </vehicle>
    <vehicle id="1#1.89" depart="801.00">
        <route edges="4 7"/>
    </vehicle>
    <vehicle id="0#1.90" depart="810.00">
        <route edges="1 3"/>
    </vehicle>
    <vehicle id="1#1.90" depart="810.00">
        <route edges="4 2"/>
    </vehicle>
    <vehicle id="2#1.45" depart="810.00">
        <route edges="5 7"/>
    </vehicle>
    <vehicle id="3#1.45" depart="810.00">
        <route edges="8 6"/>
    </vehicle>
    <vehicle id="0#1.91" depart="819.00">
        <route edges="1 3"/>
    </vehicle>
    <vehicle id="1#1.91" depart="819.00">
        <route edges="4 2"/>
    </vehicle>
    <vehicle id="0#1.92" depart="828.00">
        <route edges="1 7"/>
    </vehicle>
    <vehicle id="1#1.92" depart="828.00">
        <route edges="4 6"/>
    </vehicle>
    <vehicle id="2#1.46" depart="828.00">
        <route edges="5 7"/>
    </vehicle>
    <vehicle id="3#1.46" depart="828.00">
        <route edges="8 6"/>
    </vehicle>
    <vehicle id="0#1.93" depart="837.00">
        <route edges="1 3"/>
    </vehicle>
    <vehicle id="1#1.93" depart="837.00">
        <route edges="4 2"/>
    </vehicle>
    <vehicle id="0#1.94" depart="846.00">
        <route edges="1 3"/>
    </vehicle>
    <vehicle id="1#1.94" depart="846.00">
        <route edges="4 2"/>
    </vehicle>
    <vehicle id="2#1.47" depart="846.00">
        <route edges="5 3"/>
    </vehicle>
    <vehicle id="3#1.47" depart="846.00">
        <route edges="8 6"/>
    </vehicle>
    <vehicle id="0#1.95" depart="855.00">
        <route edges="1 6"/>
    </vehicle>
    <vehicle id="1#1.95" depart="855.00">
        <route edges="4 2"/>
    </vehicle>
    <vehicle id="0#1.96" depart="864.00">
        <route edges="1 7"/>
    </vehicle>
    <vehicle id="1#1.96" depart="864.00">
        <route edges="4 2"/>
    </vehicle>
    <vehicle id="2#1.48" depart="864.00">
        <route edges="5 7"/>
    </vehicle>
    <vehicle id="3#1.48" depart="864.00">
        <route edges="8 6"/>
    </vehicle>
    <vehicle id="0#1.97" depart="873.00">
        <route edges="1 3"/>
    </vehicle>
    <vehicle id="1#1.97" depart="873.00">
        <route edges="4 2"/>
    </vehicle>
    <vehicle id="0#1.98" depart="882.00">
        <route edges="1 7"/>
    </vehicle>
    <vehicle id="1#1.98" depart="882.00">
        <route edges="4 7"/>
    </vehicle>
    <vehicle id="2#1.49" depart="882.00">
        <route edges="5 7"/>
    </vehicle>
    <vehicle id="3#1.49" depart="882.00">
        <route edges="8 6"/>
    </vehicle>
    <vehicle id="0#1.99" depart="891.00">
        <route edges="1 3"/>
    </vehicle>
    <vehicle id="1#1.99" depart="891.00">
        <route edges="4 7"/>
    </vehicle>
    <vehicle id="0#1.100" depart="900.00">
        <route edges="1 7"/>
    </vehicle>
    <vehicle id="1#1.100" depart="900.00">
        <route edges="4 6"/>
    </vehicle>
    <vehicle id="2#1.50" depart="900.00">
        <route edges="5 7"/>
    </vehicle>
    <vehicle id="3#1.50" depart="900.00">
        <route edges="8 2"/>
    </vehicle>
    <vehicle id="0#1.101" depart="909.00">
        <route edges="1 3"/>
    </vehicle>
    <vehicle id="1#1.101" depart="909.00">
        <route edges="4 7"/>
    </vehicle>
    <vehicle id="0#1.102" depart="918.00">
        <route edges="1 6"/>
    </vehicle>
    <vehicle id="1#1.102" depart="918.00">
        <route edges="4 2"/>
    </vehicle>
    <vehicle id="2#1.51" depart="918.00">
        <route edges="5 2"/>
    </vehicle>
    <vehicle id="3#1.51" depart="918.00">
        <route edges="8 6"/>
    </vehicle>
    <vehicle id="0#1.103" depart="927.00">
        <route edges="1 3"/>
    </vehicle>
    <vehicle id="1#1.103" depart="927.00">
        <route edges="4 2"/>
    </vehicle>
    <vehicle id="0#1.104" depart="936.00">
        <route edges="1 7"/>
    </vehicle>
    <vehicle id="1#1.104" depart="936.00">
        <route edges="4 7"/>
    </vehicle>
    <vehicle id="2#1.52" depart="936.00">
        <route edges="5 3"/>
    </vehicle>
    <vehicle id="3#1.52" depart="936.00">
        <route edges="8 2"/>
    </vehicle>
    <vehicle id="0#1.105" depart="945.00">
        <route edges="1 3"/>
    </vehicle>
    <vehicle id="1#1.105" depart="945.00">
        <route edges="4 2"/>
    </vehicle>
    <vehicle id="0#1.106" depart="954.00">
        <route edges="1 3"/>
    </vehicle>
    <vehicle id="1#1.106" depart="954.00">
        <route edges="4 2"/>
    </vehicle>
    <vehicle id="2#1.53" depart="954.00">
        <route edges="5 7"/>
    </vehicle>
    <vehicle id="3#1.53" depart="954.00">
        <route edges="8 6"/>
    </vehicle>
    <vehicle id="0#1.107" depart="963.00">
        <route edges="1 6"/>
    </vehicle>
    <vehicle id="1#1.107" depart="963.00">
        <route edges="4 2"/>
    </vehicle>
    <vehicle id="0#1.108" depart="972.00">
        <route edges="1 6"/>
    </vehicle>
    <vehicle id="1#1.108" depart="972.00">
        <route edges="4 7"/>
    </vehicle>
    <vehicle id="2#1.54" depart="972.00">
        <route edges="5 7"/>
    </vehicle>
    <vehicle id="3#1.54" depart="972.00">
        <route edges="8 3"/>
    </vehicle>
    <vehicle id="0#1.109" depart="981.00">
        <route edges="1 3"/>
    </vehicle>
    <vehicle id="1#1.109" depart="981.00">
        <route edges="4 2"/>
    </vehicle>
    <vehicle id="0#1.110" depart="990.00">
        <route edges="1 6"/>
    </vehicle>
    <vehicle id="1#1.110" depart="990.00">
        <route edges="4 2"/>
    </vehicle>
    <vehicle id="2#1.55" depart="990.00">
        <route edges="5 3"/>
    </vehicle>
    <vehicle id="3#1.55" depart="990.00">
        <route edges="8 6"/>
    </vehicle>
    <vehicle id="0#1.111" depart="999.00">
        <route edges="1 3"/>
    </vehicle>
    <vehicle id="1#1.111" depart="999.00">
        <route edges="4 2"/>
    </vehicle>
    <vehicle id="0#1.112" depart="1008.00">
        <route edges="1 3"/>
    </vehicle>
    <vehicle id="1#1.112" depart="1008.00">
        <route edges="4 2"/>
    </vehicle>
    <vehicle id="2#1.56" depart="1008.00">
        <route edges="5 7"/>
    </vehicle>
    <vehicle id="3#1.56" depart="1008.00">