
<types>
  <type id="a" priority="3" numLanes="3" speed="16.667"/>
</types>
<!-- speed unit is m/s -->