<?xml version="1.0" encoding="UTF-8"?>

<!-- generated on 2023-04-09 15:13:16 by Eclipse SUMO netconvert Version 1.16.0
<configuration xmlns:xsi="http://www.w3.org/2001/XMLSchema-instance" xsi:noNamespaceSchemaLocation="http://sumo.dlr.de/xsd/netconvertConfiguration.xsd">

    <input>
        <node-files value=".\SUMO_Input\Test4.nod.xml"/>
        <edge-files value=".\SUMO_Input\Test4.edg.xml"/>
        <type-files value=".\SUMO_Input\Test4.typ.xml"/>
    </input>

    <output>
        <output-file value=".\SUMO_Input\Test4.net.xml"/>
    </output>

</configuration>
-->

<net version="1.16" junctionCornerDetail="5" limitTurnSpeed="5.50" xmlns:xsi="http://www.w3.org/2001/XMLSchema-instance" xsi:noNamespaceSchemaLocation="http://sumo.dlr.de/xsd/net_file.xsd">

    <location netOffset="0.00,0.00" convBoundary="0.00,0.00,2300.00,2300.00" origBoundary="0.00,0.00,2300.00,2300.00" projParameter="!"/>

    <type id="a" priority="3" numLanes="1" speed="16.67"/>

    <edge id=":0_0" function="internal">
        <lane id=":0_0_0" index="0" speed="6.51" length="9.03" shape="1148.40,1157.20 1148.05,1154.75 1147.00,1153.00 1145.25,1151.95 1142.80,1151.60"/>
    </edge>
    <edge id=":0_1" function="internal">
        <lane id=":0_1_0" index="0" speed="16.67" length="14.40" shape="1148.40,1157.20 1148.40,1142.80"/>
    </edge>
    <edge id=":0_2" function="internal">
        <lane id=":0_2_0" index="0" speed="8.00" length="4.07" shape="1148.40,1157.20 1148.95,1153.35 1149.04,1153.20"/>
    </edge>
    <edge id=":0_3" function="internal">
        <lane id=":0_3_0" index="0" speed="3.65" length="1.44" shape="1148.40,1157.20 1149.20,1156.00"/>
    </edge>
    <edge id=":0_16" function="internal">
        <lane id=":0_16_0" index="0" speed="8.00" length="10.13" shape="1149.04,1153.20 1150.60,1150.60 1153.35,1148.95 1157.20,1148.40"/>
    </edge>
    <edge id=":0_17" function="internal">
        <lane id=":0_17_0" index="0" speed="3.65" length="3.23" shape="1149.20,1156.00 1150.00,1155.60 1150.80,1156.00 1151.60,1157.20"/>
    </edge>
    <edge id=":0_4" function="internal">
        <lane id=":0_4_0" index="0" speed="6.51" length="9.03" shape="1157.20,1151.60 1154.75,1151.95 1153.00,1153.00 1151.95,1154.75 1151.60,1157.20"/>
    </edge>
    <edge id=":0_5" function="internal">
        <lane id=":0_5_0" index="0" speed="16.67" length="14.40" shape="1157.20,1151.60 1142.80,1151.60"/>
    </edge>
    <edge id=":0_6" function="internal">
        <lane id=":0_6_0" index="0" speed="8.00" length="4.07" shape="1157.20,1151.60 1153.35,1151.05 1153.20,1150.96"/>
    </edge>
    <edge id=":0_7" function="internal">
        <lane id=":0_7_0" index="0" speed="3.65" length="1.44" shape="1157.20,1151.60 1156.00,1150.80"/>
    </edge>
    <edge id=":0_18" function="internal">
        <lane id=":0_18_0" index="0" speed="8.00" length="10.13" shape="1153.20,1150.96 1150.60,1149.40 1148.95,1146.65 1148.40,1142.80"/>
    </edge>
    <edge id=":0_19" function="internal">
        <lane id=":0_19_0" index="0" speed="3.65" length="3.23" shape="1156.00,1150.80 1155.60,1150.00 1156.00,1149.20 1157.20,1148.40"/>
    </edge>
    <edge id=":0_8" function="internal">
        <lane id=":0_8_0" index="0" speed="6.51" length="9.03" shape="1151.60,1142.80 1151.95,1145.25 1153.00,1147.00 1154.75,1148.05 1157.20,1148.40"/>
    </edge>
    <edge id=":0_9" function="internal">
        <lane id=":0_9_0" index="0" speed="16.67" length="14.40" shape="1151.60,1142.80 1151.60,1157.20"/>
    </edge>
    <edge id=":0_10" function="internal">
        <lane id=":0_10_0" index="0" speed="8.00" length="4.07" shape="1151.60,1142.80 1151.05,1146.65 1150.96,1146.80"/>
    </edge>
    <edge id=":0_11" function="internal">
        <lane id=":0_11_0" index="0" speed="3.65" length="1.44" shape="1151.60,1142.80 1150.80,1144.00"/>
    </edge>
    <edge id=":0_20" function="internal">
        <lane id=":0_20_0" index="0" speed="8.00" length="10.13" shape="1150.96,1146.80 1149.40,1149.40 1146.65,1151.05 1142.80,1151.60"/>
    </edge>
    <edge id=":0_21" function="internal">
        <lane id=":0_21_0" index="0" speed="3.65" length="3.23" shape="1150.80,1144.00 1150.00,1144.40 1149.20,1144.00 1148.40,1142.80"/>
    </edge>
    <edge id=":0_12" function="internal">
        <lane id=":0_12_0" index="0" speed="6.51" length="9.03" shape="1142.80,1148.40 1145.25,1148.05 1147.00,1147.00 1148.05,1145.25 1148.40,1142.80"/>
    </edge>
    <edge id=":0_13" function="internal">
        <lane id=":0_13_0" index="0" speed="16.67" length="14.40" shape="1142.80,1148.40 1157.20,1148.40"/>
    </edge>
    <edge id=":0_14" function="internal">
        <lane id=":0_14_0" index="0" speed="8.00" length="4.07" shape="1142.80,1148.40 1146.65,1148.95 1146.80,1149.04"/>
    </edge>
    <edge id=":0_15" function="internal">
        <lane id=":0_15_0" index="0" speed="3.65" length="1.44" shape="1142.80,1148.40 1144.00,1149.20"/>
    </edge>
    <edge id=":0_22" function="internal">
        <lane id=":0_22_0" index="0" speed="8.00" length="10.13" shape="1146.80,1149.04 1149.40,1150.60 1151.05,1153.35 1151.60,1157.20"/>
    </edge>
    <edge id=":0_23" function="internal">
        <lane id=":0_23_0" index="0" speed="3.65" length="3.23" shape="1144.00,1149.20 1144.40,1150.00 1144.00,1150.80 1142.80,1151.60"/>
    </edge>
    <edge id=":1_0" function="internal">
        <lane id=":1_0_0" index="0" speed="3.65" length="4.67" shape="1151.60,2300.00 1150.80,2301.20 1150.00,2301.60 1149.20,2301.20 1148.40,2300.00"/>
    </edge>
    <edge id=":2_0" function="internal">
        <lane id=":2_0_0" index="0" speed="3.65" length="4.67" shape="1148.40,0.00 1149.20,-1.20 1150.00,-1.60 1150.80,-1.20 1151.60,0.00"/>
    </edge>
    <edge id=":3_0" function="internal">
        <lane id=":3_0_0" index="0" speed="3.65" length="4.67" shape="0.00,1151.60 -1.20,1150.80 -1.60,1150.00 -1.20,1149.20 0.00,1148.40"/>
    </edge>
    <edge id=":4_0" function="internal">
        <lane id=":4_0_0" index="0" speed="3.65" length="4.67" shape="2300.00,1148.40 2301.20,1149.20 2301.60,1150.00 2301.20,1150.80 2300.00,1151.60"/>
    </edge>

    <edge id="1" from="1" to="0" priority="3" type="a">
        <lane id="1_0" index="0" speed="16.67" length="1142.80" shape="1148.40,2300.00 1148.40,1157.20"/>
    </edge>
    <edge id="2" from="0" to="1" priority="3" type="a">
        <lane id="2_0" index="0" speed="16.67" length="1142.80" shape="1151.60,1157.20 1151.60,2300.00"/>
    </edge>
    <edge id="3" from="0" to="2" priority="3" type="a">
        <lane id="3_0" index="0" speed="16.67" length="1142.80" shape="1148.40,1142.80 1148.40,0.00"/>
    </edge>
    <edge id="4" from="2" to="0" priority="3" type="a">
        <lane id="4_0" index="0" speed="16.67" length="1142.80" shape="1151.60,0.00 1151.60,1142.80"/>
    </edge>
    <edge id="5" from="3" to="0" priority="3" type="a">
        <lane id="5_0" index="0" speed="16.67" length="1142.80" shape="0.00,1148.40 1142.80,1148.40"/>
    </edge>
    <edge id="6" from="0" to="3" priority="3" type="a">
        <lane id="6_0" index="0" speed="16.67" length="1142.80" shape="1142.80,1151.60 0.00,1151.60"/>
    </edge>
    <edge id="7" from="0" to="4" priority="3" type="a">
        <lane id="7_0" index="0" speed="16.67" length="1142.80" shape="1157.20,1148.40 2300.00,1148.40"/>
    </edge>
    <edge id="8" from="4" to="0" priority="3" type="a">
        <lane id="8_0" index="0" speed="16.67" length="1142.80" shape="2300.00,1151.60 1157.20,1151.60"/>
    </edge>

    <tlLogic id="0" type="static" programID="0" offset="0">
        <phase duration="41" state="GGggrrrrGGggrrrr"/>
        <phase duration="4"  state="yyyyrrrryyyyrrrr"/>
        <phase duration="41" state="rrrrGGggrrrrGGgg"/>
        <phase duration="4"  state="rrrryyyyrrrryyyy"/>
    </tlLogic>

    <junction id="0" type="traffic_light" x="1150.00" y="1150.00" incLanes="1_0 8_0 4_0 5_0" intLanes=":0_0_0 :0_1_0 :0_16_0 :0_17_0 :0_4_0 :0_5_0 :0_18_0 :0_19_0 :0_8_0 :0_9_0 :0_20_0 :0_21_0 :0_12_0 :0_13_0 :0_22_0 :0_23_0" shape="1146.80,1157.20 1153.20,1157.20 1153.64,1154.98 1154.20,1154.20 1154.98,1153.64 1155.98,1153.31 1157.20,1153.20 1157.20,1146.80 1154.98,1146.36 1154.20,1145.80 1153.64,1145.02 1153.31,1144.02 1153.20,1142.80 1146.80,1142.80 1146.36,1145.02 1145.80,1145.80 1145.02,1146.36 1144.02,1146.69 1142.80,1146.80 1142.80,1153.20 1145.02,1153.64 1145.80,1154.20 1146.36,1154.98 1146.69,1155.98">
        <request index="0"  response="0000000000000000" foes="1000010000100000" cont="0"/>
        <request index="1"  response="0100000001000000" foes="0111110001100000" cont="0"/>
        <request index="2"  response="0100011101000000" foes="0110011111100000" cont="1"/>
        <request index="3"  response="0100001000010000" foes="0100001000010000" cont="1"/>
        <request index="4"  response="0000001000000000" foes="0100001000001000" cont="0"/>
        <request index="5"  response="0000011000000111" foes="1100011000000111" cont="0"/>
        <request index="6"  response="0011011000000110" foes="0111111000000110" cont="1"/>
        <request index="7"  response="0010000100000100" foes="0010000100000100" cont="1"/>
        <request index="8"  response="0000000000000000" foes="0010000010000100" cont="0"/>
        <request index="9"  response="0100000001000000" foes="0110000001111100" cont="0"/>
        <request index="10" response="0100000001000011" foes="1110000001100111" cont="1"/>
        <request index="11" response="0001000001000010" foes="0001000001000010" cont="1"/>
        <request index="12" response="0000000000000010" foes="0000100001000010" cont="0"/>
        <request index="13" response="0000011100000110" foes="0000011111000110" cont="0"/>
        <request index="14" response="0000011001110110" foes="0000011001111110" cont="1"/>
        <request index="15" response="0000010000100001" foes="0000010000100001" cont="1"/>
    </junction>
    <junction id="1" type="priority" x="1150.00" y="2300.00" incLanes="2_0" intLanes=":1_0_0" shape="1150.00,2300.00 1153.20,2300.00 1150.00,2300.00">
        <request index="0" response="0" foes="0" cont="0"/>
    </junction>
    <junction id="2" type="priority" x="1150.00" y="0.00" incLanes="3_0" intLanes=":2_0_0" shape="1150.00,0.00 1146.80,0.00 1150.00,0.00">
        <request index="0" response="0" foes="0" cont="0"/>
    </junction>
    <junction id="3" type="priority" x="0.00" y="1150.00" incLanes="6_0" intLanes=":3_0_0" shape="0.00,1150.00 0.00,1153.20 0.00,1150.00">
        <request index="0" response="0" foes="0" cont="0"/>
    </junction>
    <junction id="4" type="priority" x="2300.00" y="1150.00" incLanes="7_0" intLanes=":4_0_0" shape="2300.00,1150.00 2300.00,1146.80 2300.00,1150.00">
        <request index="0" response="0" foes="0" cont="0"/>
    </junction>

    <junction id=":0_16_0" type="internal" x="1149.04" y="1153.20" incLanes=":0_2_0 4_0" intLanes=":0_5_0 :0_6_0 :0_7_0 :0_8_0 :0_9_0 :0_13_0 :0_14_0"/>
    <junction id=":0_17_0" type="internal" x="1149.20" y="1156.00" incLanes=":0_3_0 4_0 5_0 8_0" intLanes=":0_4_0 :0_9_0 :0_14_0"/>
    <junction id=":0_18_0" type="internal" x="1153.20" y="1150.96" incLanes=":0_6_0 5_0" intLanes=":0_1_0 :0_2_0 :0_9_0 :0_10_0 :0_11_0 :0_12_0 :0_13_0"/>
    <junction id=":0_19_0" type="internal" x="1156.00" y="1150.80" incLanes=":0_7_0 1_0 4_0 5_0" intLanes=":0_2_0 :0_8_0 :0_13_0"/>
    <junction id=":0_20_0" type="internal" x="1150.96" y="1146.80" incLanes=":0_10_0 1_0" intLanes=":0_0_0 :0_1_0 :0_5_0 :0_6_0 :0_13_0 :0_14_0 :0_15_0"/>
    <junction id=":0_21_0" type="internal" x="1150.80" y="1144.00" incLanes=":0_11_0 1_0 5_0 8_0" intLanes=":0_1_0 :0_6_0 :0_12_0"/>
    <junction id=":0_22_0" type="internal" x="1146.80" y="1149.04" incLanes=":0_14_0 8_0" intLanes=":0_1_0 :0_2_0 :0_3_0 :0_4_0 :0_5_0 :0_9_0 :0_10_0"/>
    <junction id=":0_23_0" type="internal" x="1144.00" y="1149.20" incLanes=":0_15_0 1_0 4_0 8_0" intLanes=":0_0_0 :0_5_0 :0_10_0"/>

    <connection from="1" to="6" fromLane="0" toLane="0" via=":0_0_0" tl="0" linkIndex="0" dir="r" state="O"/>
    <connection from="1" to="3" fromLane="0" toLane="0" via=":0_1_0" tl="0" linkIndex="1" dir="s" state="O"/>
    <connection from="1" to="7" fromLane="0" toLane="0" via=":0_2_0" tl="0" linkIndex="2" dir="l" state="o"/>
    <connection from="1" to="2" fromLane="0" toLane="0" via=":0_3_0" tl="0" linkIndex="3" dir="t" state="o"/>
    <connection from="2" to="1" fromLane="0" toLane="0" via=":1_0_0" dir="t" state="M"/>
    <connection from="3" to="4" fromLane="0" toLane="0" via=":2_0_0" dir="t" state="M"/>
    <connection from="4" to="7" fromLane="0" toLane="0" via=":0_8_0" tl="0" linkIndex="8" dir="r" state="O"/>
    <connection from="4" to="2" fromLane="0" toLane="0" via=":0_9_0" tl="0" linkIndex="9" dir="s" state="O"/>
    <connection from="4" to="6" fromLane="0" toLane="0" via=":0_10_0" tl="0" linkIndex="10" dir="l" state="o"/>
    <connection from="4" to="3" fromLane="0" toLane="0" via=":0_11_0" tl="0" linkIndex="11" dir="t" state="o"/>
    <connection from="5" to="3" fromLane="0" toLane="0" via=":0_12_0" tl="0" linkIndex="12" dir="r" state="o"/>
    <connection from="5" to="7" fromLane="0" toLane="0" via=":0_13_0" tl="0" linkIndex="13" dir="s" state="o"/>
    <connection from="5" to="2" fromLane="0" toLane="0" via=":0_14_0" tl="0" linkIndex="14" dir="l" state="o"/>
    <connection from="5" to="6" fromLane="0" toLane="0" via=":0_15_0" tl="0" linkIndex="15" dir="t" state="o"/>
    <connection from="6" to="5" fromLane="0" toLane="0" via=":3_0_0" dir="t" state="M"/>
    <connection from="7" to="8" fromLane="0" toLane="0" via=":4_0_0" dir="t" state="M"/>
    <connection from="8" to="2" fromLane="0" toLane="0" via=":0_4_0" tl="0" linkIndex="4" dir="r" state="o"/>
    <connection from="8" to="6" fromLane="0" toLane="0" via=":0_5_0" tl="0" linkIndex="5" dir="s" state="o"/>
    <connection from="8" to="3" fromLane="0" toLane="0" via=":0_6_0" tl="0" linkIndex="6" dir="l" state="o"/>
    <connection from="8" to="7" fromLane="0" toLane="0" via=":0_7_0" tl="0" linkIndex="7" dir="t" state="o"/>

    <connection from=":0_0" to="6" fromLane="0" toLane="0" dir="r" state="M"/>
    <connection from=":0_1" to="3" fromLane="0" toLane="0" dir="s" state="M"/>
    <connection from=":0_2" to="7" fromLane="0" toLane="0" via=":0_16_0" dir="l" state="m"/>
    <connection from=":0_16" to="7" fromLane="0" toLane="0" dir="l" state="M"/>
    <connection from=":0_3" to="2" fromLane="0" toLane="0" via=":0_17_0" dir="t" state="m"/>
    <connection from=":0_17" to="2" fromLane="0" toLane="0" dir="t" state="M"/>
    <connection from=":0_4" to="2" fromLane="0" toLane="0" dir="r" state="M"/>
    <connection from=":0_5" to="6" fromLane="0" toLane="0" dir="s" state="M"/>
    <connection from=":0_6" to="3" fromLane="0" toLane="0" via=":0_18_0" dir="l" state="m"/>
    <connection from=":0_18" to="3" fromLane="0" toLane="0" dir="l" state="M"/>
    <connection from=":0_7" to="7" fromLane="0" toLane="0" via=":0_19_0" dir="t" state="m"/>
    <connection from=":0_19" to="7" fromLane="0" toLane="0" dir="t" state="M"/>
    <connection from=":0_8" to="7" fromLane="0" toLane="0" dir="r" state="M"/>
    <connection from=":0_9" to="2" fromLane="0" toLane="0" dir="s" state="M"/>
    <connection from=":0_10" to="6" fromLane="0" toLane="0" via=":0_20_0" dir="l" state="m"/>
    <connection from=":0_20" to="6" fromLane="0" toLane="0" dir="l" state="M"/>
    <connection from=":0_11" to="3" fromLane="0" toLane="0" via=":0_21_0" dir="t" state="m"/>
    <connection from=":0_21" to="3" fromLane="0" toLane="0" dir="t" state="M"/>
    <connection from=":0_12" to="3" fromLane="0" toLane="0" dir="r" state="M"/>
    <connection from=":0_13" to="7" fromLane="0" toLane="0" dir="s" state="M"/>
    <connection from=":0_14" to="2" fromLane="0" toLane="0" via=":0_22_0" dir="l" state="m"/>
    <connection from=":0_22" to="2" fromLane="0" toLane="0" dir="l" state="M"/>
    <connection from=":0_15" to="6" fromLane="0" toLane="0" via=":0_23_0" dir="t" state="m"/>
    <connection from=":0_23" to="6" fromLane="0" toLane="0" dir="t" state="M"/>
    <connection from=":1_0" to="1" fromLane="0" toLane="0" dir="t" state="M"/>
    <connection from=":2_0" to="4" fromLane="0" toLane="0" dir="t" state="M"/>
    <connection from=":3_0" to="5" fromLane="0" toLane="0" dir="t" state="M"/>
    <connection from=":4_0" to="8" fromLane="0" toLane="0" dir="t" state="M"/>

</net>
