<?xml version="1.0" encoding="UTF-8"?>

<!-- generated on 2023-04-22 20:59:31 by Eclipse SUMO netedit Version 1.16.0
<configuration xmlns:xsi="http://www.w3.org/2001/XMLSchema-instance" xsi:noNamespaceSchemaLocation="http://sumo.dlr.de/xsd/netconvertConfiguration.xsd">

    <input>
        <sumo-net-file value="D:\my_programs_git\Digital-Twin-CTM\Digital-Twin\SUMO_Input\net\Test4.net.xml"/>
    </input>

    <output>
        <output-file value="D:\my_programs_git\Digital-Twin-CTM\Digital-Twin\SUMO_Input\net\Test4.net.xml"/>
    </output>

    <processing>
        <geometry.min-radius.fix.railways value="false"/>
        <geometry.max-grade.fix value="false"/>
        <offset.disable-normalization value="true"/>
        <lefthand value="0"/>
    </processing>

    <junctions>
        <no-turnarounds value="true"/>
        <junctions.corner-detail value="5"/>
        <junctions.limit-turn-speed value="5.50"/>
        <rectangular-lane-cut value="0"/>
    </junctions>

    <pedestrian>
        <walkingareas value="0"/>
    </pedestrian>

</configuration>
-->

<net version="1.16" junctionCornerDetail="5" limitTurnSpeed="5.50" xmlns:xsi="http://www.w3.org/2001/XMLSchema-instance" xsi:noNamespaceSchemaLocation="http://sumo.dlr.de/xsd/net_file.xsd">

    <location netOffset="0.00,0.00" convBoundary="0.00,0.00,2300.00,2300.00" origBoundary="0.00,0.00,2300.00,2300.00" projParameter="!"/>

    <type id="a" priority="3" numLanes="3" speed="11.36"/>

    <edge id=":0_0" function="internal">
        <lane id=":0_0_0" index="0" speed="6.51" length="9.03" shape="1142.00,1163.60 1141.65,1161.15 1140.60,1159.40 1138.85,1158.35 1136.40,1158.00"/>
    </edge>
    <edge id=":0_1" function="internal">
        <lane id=":0_1_0" index="0" speed="11.36" length="27.20" shape="1145.20,1163.60 1145.20,1136.40"/>
    </edge>
    <edge id=":0_2" function="internal">
        <lane id=":0_2_0" index="0" speed="10.36" length="12.07" shape="1148.40,1163.60 1149.35,1156.95 1152.10,1152.36"/>
    </edge>
    <edge id=":0_12" function="internal">
        <lane id=":0_12_0" index="0" speed="10.36" length="12.44" shape="1152.10,1152.36 1152.20,1152.20 1156.95,1149.35 1163.60,1148.40"/>
    </edge>
    <edge id=":0_3" function="internal">
        <lane id=":0_3_0" index="0" speed="6.51" length="9.03" shape="1163.60,1158.00 1161.15,1158.35 1159.40,1159.40 1158.35,1161.15 1158.00,1163.60"/>
    </edge>
    <edge id=":0_4" function="internal">
        <lane id=":0_4_0" index="0" speed="11.36" length="27.20" shape="1163.60,1154.80 1136.40,1154.80"/>
    </edge>
    <edge id=":0_5" function="internal">
        <lane id=":0_5_0" index="0" speed="10.36" length="12.07" shape="1163.60,1151.60 1156.95,1150.65 1152.36,1147.90"/>
    </edge>
    <edge id=":0_13" function="internal">
        <lane id=":0_13_0" index="0" speed="10.36" length="12.44" shape="1152.36,1147.90 1152.20,1147.80 1149.35,1143.05 1148.40,1136.40"/>
    </edge>
    <edge id=":0_6" function="internal">
        <lane id=":0_6_0" index="0" speed="6.51" length="9.03" shape="1158.00,1136.40 1158.35,1138.85 1159.40,1140.60 1161.15,1141.65 1163.60,1142.00"/>
    </edge>
    <edge id=":0_7" function="internal">
        <lane id=":0_7_0" index="0" speed="11.36" length="27.20" shape="1154.80,1136.40 1154.80,1163.60"/>
    </edge>
    <edge id=":0_8" function="internal">
        <lane id=":0_8_0" index="0" speed="10.36" length="12.07" shape="1151.60,1136.40 1150.65,1143.05 1147.90,1147.64"/>
    </edge>
    <edge id=":0_14" function="internal">
        <lane id=":0_14_0" index="0" speed="10.36" length="12.44" shape="1147.90,1147.64 1147.80,1147.80 1143.05,1150.65 1136.40,1151.60"/>
    </edge>
    <edge id=":0_9" function="internal">
        <lane id=":0_9_0" index="0" speed="6.51" length="9.03" shape="1136.40,1142.00 1138.85,1141.65 1140.60,1140.60 1141.65,1138.85 1142.00,1136.40"/>
    </edge>
    <edge id=":0_10" function="internal">
        <lane id=":0_10_0" index="0" speed="11.36" length="27.20" shape="1136.40,1145.20 1163.60,1145.20"/>
    </edge>
    <edge id=":0_11" function="internal">
        <lane id=":0_11_0" index="0" speed="10.36" length="12.07" shape="1136.40,1148.40 1143.05,1149.35 1147.64,1152.10"/>
    </edge>
    <edge id=":0_15" function="internal">
        <lane id=":0_15_0" index="0" speed="10.36" length="12.44" shape="1147.64,1152.10 1147.80,1152.20 1150.65,1156.95 1151.60,1163.60"/>
    </edge>
    <edge id=":1_0" function="internal">
        <lane id=":1_0_0" index="0" speed="3.65" length="4.67" shape="1151.60,2300.00 1150.80,2301.20 1150.00,2301.60 1149.20,2301.20 1148.40,2300.00"/>
    </edge>
    <edge id=":2_0" function="internal">
        <lane id=":2_0_0" index="0" speed="3.65" length="4.67" shape="1148.40,0.00 1149.20,-1.20 1150.00,-1.60 1150.80,-1.20 1151.60,0.00"/>
    </edge>
    <edge id=":3_0" function="internal">
        <lane id=":3_0_0" index="0" speed="3.65" length="4.67" shape="0.00,1151.60 -1.20,1150.80 -1.60,1150.00 -1.20,1149.20 0.00,1148.40"/>
    </edge>
    <edge id=":4_0" function="internal">
        <lane id=":4_0_0" index="0" speed="3.65" length="4.67" shape="2300.00,1148.40 2301.20,1149.20 2301.60,1150.00 2301.20,1150.80 2300.00,1151.60"/>
    </edge>

    <edge id="1" from="1" to="0" priority="3" type="a">
        <lane id="1_0" index="0" speed="11.36" length="1136.40" shape="1142.00,2300.00 1142.00,1163.60"/>
        <lane id="1_1" index="1" speed="11.36" length="1136.40" shape="1145.20,2300.00 1145.20,1163.60"/>
        <lane id="1_2" index="2" speed="11.36" length="1136.40" shape="1148.40,2300.00 1148.40,1163.60"/>
    </edge>
    <edge id="2" from="0" to="1" priority="3" type="a">
        <lane id="2_0" index="0" speed="11.36" length="1136.40" shape="1158.00,1163.60 1158.00,2300.00"/>
        <lane id="2_1" index="1" speed="11.36" length="1136.40" shape="1154.80,1163.60 1154.80,2300.00"/>
        <lane id="2_2" index="2" speed="11.36" length="1136.40" shape="1151.60,1163.60 1151.60,2300.00"/>
    </edge>
    <edge id="3" from="0" to="2" priority="3" type="a">
        <lane id="3_0" index="0" speed="11.36" length="1136.40" shape="1142.00,1136.40 1142.00,0.00"/>
        <lane id="3_1" index="1" speed="11.36" length="1136.40" shape="1145.20,1136.40 1145.20,0.00"/>
        <lane id="3_2" index="2" speed="11.36" length="1136.40" shape="1148.40,1136.40 1148.40,0.00"/>
    </edge>
    <edge id="4" from="2" to="0" priority="3" type="a">
        <lane id="4_0" index="0" speed="11.36" length="1136.40" shape="1158.00,0.00 1158.00,1136.40"/>
        <lane id="4_1" index="1" speed="11.36" length="1136.40" shape="1154.80,0.00 1154.80,1136.40"/>
        <lane id="4_2" index="2" speed="11.36" length="1136.40" shape="1151.60,0.00 1151.60,1136.40"/>
    </edge>
    <edge id="5" from="3" to="0" priority="3" type="a">
        <lane id="5_0" index="0" speed="11.36" length="1136.40" shape="0.00,1142.00 1136.40,1142.00"/>
        <lane id="5_1" index="1" speed="11.36" length="1136.40" shape="0.00,1145.20 1136.40,1145.20"/>
        <lane id="5_2" index="2" speed="11.36" length="1136.40" shape="0.00,1148.40 1136.40,1148.40"/>
    </edge>
    <edge id="6" from="0" to="3" priority="3" type="a">
        <lane id="6_0" index="0" speed="11.36" length="1136.40" shape="1136.40,1158.00 0.00,1158.00"/>
        <lane id="6_1" index="1" speed="11.36" length="1136.40" shape="1136.40,1154.80 0.00,1154.80"/>
        <lane id="6_2" index="2" speed="11.36" length="1136.40" shape="1136.40,1151.60 0.00,1151.60"/>
    </edge>
    <edge id="7" from="0" to="4" priority="3" type="a">
        <lane id="7_0" index="0" speed="11.36" length="1136.40" shape="1163.60,1142.00 2300.00,1142.00"/>
        <lane id="7_1" index="1" speed="11.36" length="1136.40" shape="1163.60,1145.20 2300.00,1145.20"/>
        <lane id="7_2" index="2" speed="11.36" length="1136.40" shape="1163.60,1148.40 2300.00,1148.40"/>
    </edge>
    <edge id="8" from="4" to="0" priority="3" type="a">
        <lane id="8_0" index="0" speed="11.36" length="1136.40" shape="2300.00,1158.00 1163.60,1158.00"/>
        <lane id="8_1" index="1" speed="11.36" length="1136.40" shape="2300.00,1154.80 1163.60,1154.80"/>
        <lane id="8_2" index="2" speed="11.36" length="1136.40" shape="2300.00,1151.60 1163.60,1151.60"/>
    </edge>

    <tlLogic id="0" type="static" programID="0" offset="0">
        <phase duration="20" state="gGrrrrgGrrrr"/> 
        <phase duration="3"  state="yyyyyyyyyyyy"/>
        <phase duration="7" state="grGrrrgrGrrr"/>
        <phase duration="3"  state="yyyyyyyyyyyy"/>
        <phase duration="11" state="rrrgGrrrrgGr"/>
        <phase duration="3"  state="yyyyyyyyyyyy"/>
        <phase duration="5" state="rrrgrGrrrgrG"/>
        <phase duration="3"  state="yyyyyyyyyyyy"/>
    </tlLogic>
    <!-- <tlLogic id="0" type="static" programID="1" offset="0">
        <phase duration="47" state="GGGrrrGGGrrr"/>
        <phase duration="3"  state="yyyyyyyyyyyy"/>
        <phase duration="47" state="rrrGGGrrrGGG"/>
        <phase duration="3"  state="yyyyyyyyyyyy"/>
    </tlLogic> -->
    

    <junction id="0" type="traffic_light" x="1150.00" y="1150.00" incLanes="1_0 1_1 1_2 8_0 8_1 8_2 4_0 4_1 4_2 5_0 5_1 5_2" intLanes=":0_0_0 :0_1_0 :0_12_0 :0_3_0 :0_4_0 :0_13_0 :0_6_0 :0_7_0 :0_14_0 :0_9_0 :0_10_0 :0_15_0" shape="1140.40,1163.60 1159.60,1163.60 1160.04,1161.38 1160.60,1160.60 1161.38,1160.04 1162.38,1159.71 1163.60,1159.60 1163.60,1140.40 1161.38,1139.96 1160.60,1139.40 1160.04,1138.62 1159.71,1137.62 1159.60,1136.40 1140.40,1136.40 1139.96,1138.62 1139.40,1139.40 1138.62,1139.96 1137.62,1140.29 1136.40,1140.40 1136.40,1159.60 1138.62,1160.04 1139.40,1160.60 1139.96,1161.38 1140.29,1162.38">
        <request index="0"  response="000000000000" foes="000000000000" cont="0"/>
        <request index="1"  response="100000000000" foes="110100010000" cont="0"/>
        <request index="2"  response="100010100000" foes="100010110000" cont="1"/>
        <request index="3"  response="000000000000" foes="000000000000" cont="0"/>
        <request index="4"  response="000010000110" foes="100010000110" cont="0"/>
        <request index="5"  response="010110000100" foes="010110000100" cont="1"/>
        <request index="6"  response="000000000000" foes="000000000000" cont="0"/>
        <request index="7"  response="000000100000" foes="010000110100" cont="0"/>
        <request index="8"  response="100000100010" foes="110000100010" cont="1"/>
        <request index="9"  response="000000000000" foes="000000000000" cont="0"/>
        <request index="10" response="000110000010" foes="000110100010" cont="0"/>
        <request index="11" response="000100010110" foes="000100010110" cont="1"/>
    </junction>
    <junction id="1" type="priority" x="1150.00" y="2300.00" incLanes="2_0 2_1 2_2" intLanes=":1_0_0" shape="1150.00,2300.00 1159.60,2300.00 1150.00,2300.00">
        <request index="0" response="0" foes="0" cont="0"/>
    </junction>
    <junction id="2" type="priority" x="1150.00" y="0.00" incLanes="3_0 3_1 3_2" intLanes=":2_0_0" shape="1150.00,0.00 1140.40,0.00 1150.00,0.00">
        <request index="0" response="0" foes="0" cont="0"/>
    </junction>
    <junction id="3" type="priority" x="0.00" y="1150.00" incLanes="6_0 6_1 6_2" intLanes=":3_0_0" shape="0.00,1150.00 0.00,1159.60 0.00,1150.00">
        <request index="0" response="0" foes="0" cont="0"/>
    </junction>
    <junction id="4" type="priority" x="2300.00" y="1150.00" incLanes="7_0 7_1 7_2" intLanes=":4_0_0" shape="2300.00,1150.00 2300.00,1140.40 2300.00,1150.00">
        <request index="0" response="0" foes="0" cont="0"/>
    </junction>

    <junction id=":0_12_0" type="internal" x="1152.10" y="1152.36" incLanes=":0_2_0 4_1" intLanes=":0_4_0 :0_5_0 :0_7_0 :0_11_0"/>
    <junction id=":0_13_0" type="internal" x="1152.36" y="1147.90" incLanes=":0_5_0 5_1" intLanes=":0_2_0 :0_7_0 :0_8_0 :0_10_0"/>
    <junction id=":0_14_0" type="internal" x="1147.90" y="1147.64" incLanes=":0_8_0 1_1" intLanes=":0_1_0 :0_5_0 :0_10_0 :0_11_0"/>
    <junction id=":0_15_0" type="internal" x="1147.64" y="1152.10" incLanes=":0_11_0 8_1" intLanes=":0_1_0 :0_2_0 :0_4_0 :0_8_0"/>

    <connection from="1" to="6" fromLane="0" toLane="0" via=":0_0_0" tl="0" linkIndex="0" dir="r" state="O"/>
    <connection from="1" to="3" fromLane="1" toLane="1" via=":0_1_0" tl="0" linkIndex="1" dir="s" state="O"/>
    <connection from="1" to="7" fromLane="2" toLane="2" via=":0_2_0" tl="0" linkIndex="2" dir="l" state="o"/>
    <connection from="2" to="1" fromLane="2" toLane="2" via=":1_0_0" dir="t" state="M"/>
    <connection from="3" to="4" fromLane="2" toLane="2" via=":2_0_0" dir="t" state="M"/>
    <connection from="4" to="7" fromLane="0" toLane="0" via=":0_6_0" tl="0" linkIndex="6" dir="r" state="O"/>
    <connection from="4" to="2" fromLane="1" toLane="1" via=":0_7_0" tl="0" linkIndex="7" dir="s" state="O"/>
    <connection from="4" to="6" fromLane="2" toLane="2" via=":0_8_0" tl="0" linkIndex="8" dir="l" state="o"/>
    <connection from="5" to="3" fromLane="0" toLane="0" via=":0_9_0" tl="0" linkIndex="9" dir="r" state="O"/>
    <connection from="5" to="7" fromLane="1" toLane="1" via=":0_10_0" tl="0" linkIndex="10" dir="s" state="o"/>
    <connection from="5" to="2" fromLane="2" toLane="2" via=":0_11_0" tl="0" linkIndex="11" dir="l" state="o"/>
    <connection from="6" to="5" fromLane="2" toLane="2" via=":3_0_0" dir="t" state="M"/>
    <connection from="7" to="8" fromLane="2" toLane="2" via=":4_0_0" dir="t" state="M"/>
    <connection from="8" to="2" fromLane="0" toLane="0" via=":0_3_0" tl="0" linkIndex="3" dir="r" state="O"/>
    <connection from="8" to="6" fromLane="1" toLane="1" via=":0_4_0" tl="0" linkIndex="4" dir="s" state="o"/>
    <connection from="8" to="3" fromLane="2" toLane="2" via=":0_5_0" tl="0" linkIndex="5" dir="l" state="o"/>

    <connection from=":0_0" to="6" fromLane="0" toLane="0" dir="r" state="M"/>
    <connection from=":0_1" to="3" fromLane="0" toLane="1" dir="s" state="M"/>
    <connection from=":0_2" to="7" fromLane="0" toLane="2" via=":0_12_0" dir="l" state="m"/>
    <connection from=":0_12" to="7" fromLane="0" toLane="2" dir="l" state="M"/>
    <connection from=":0_3" to="2" fromLane="0" toLane="0" dir="r" state="M"/>
    <connection from=":0_4" to="6" fromLane="0" toLane="1" dir="s" state="M"/>
    <connection from=":0_5" to="3" fromLane="0" toLane="2" via=":0_13_0" dir="l" state="m"/>
    <connection from=":0_13" to="3" fromLane="0" toLane="2" dir="l" state="M"/>
    <connection from=":0_6" to="7" fromLane="0" toLane="0" dir="r" state="M"/>
    <connection from=":0_7" to="2" fromLane="0" toLane="1" dir="s" state="M"/>
    <connection from=":0_8" to="6" fromLane="0" toLane="2" via=":0_14_0" dir="l" state="m"/>
    <connection from=":0_14" to="6" fromLane="0" toLane="2" dir="l" state="M"/>
    <connection from=":0_9" to="3" fromLane="0" toLane="0" dir="r" state="M"/>
    <connection from=":0_10" to="7" fromLane="0" toLane="1" dir="s" state="M"/>
    <connection from=":0_11" to="2" fromLane="0" toLane="2" via=":0_15_0" dir="l" state="m"/>
    <connection from=":0_15" to="2" fromLane="0" toLane="2" dir="l" state="M"/>
    <connection from=":1_0" to="1" fromLane="0" toLane="2" dir="t" state="M"/>
    <connection from=":2_0" to="4" fromLane="0" toLane="2" dir="t" state="M"/>
    <connection from=":3_0" to="5" fromLane="0" toLane="2" dir="t" state="M"/>
    <connection from=":4_0" to="8" fromLane="0" toLane="2" dir="t" state="M"/>

</net>
