
<types>
  <type id="a" priority="3" numLanes="3" speed="11.36"/>
</types>
<!-- speed unit is m/s -->