<additional>
	<laneAreaDetector file="e2output.xml" freq="60" friendlyPos="x" id="arc_1_0" lane="1_0" length="11.36" pos="0.0" />
	<laneAreaDetector file="e2output.xml" freq="60" friendlyPos="x" id="arc_1_1" lane="1_0" length="11.36" pos="11.36" />
	<laneAreaDetector file="e2output.xml" freq="60" friendlyPos="x" id="arc_1_2" lane="1_0" length="11.36" pos="22.72" />
	<laneAreaDetector file="e2output.xml" freq="60" friendlyPos="x" id="arc_1_3" lane="1_0" length="11.36" pos="34.08" />
	<laneAreaDetector file="e2output.xml" freq="60" friendlyPos="x" id="arc_1_4" lane="1_0" length="11.36" pos="45.44" />
	<laneAreaDetector file="e2output.xml" freq="60" friendlyPos="x" id="arc_1_5" lane="1_0" length="11.36" pos="56.8" />
	<laneAreaDetector file="e2output.xml" freq="60" friendlyPos="x" id="arc_1_6" lane="1_0" length="11.36" pos="68.16" />
	<laneAreaDetector file="e2output.xml" freq="60" friendlyPos="x" id="arc_1_7" lane="1_0" length="11.36" pos="79.52" />
	<laneAreaDetector file="e2output.xml" freq="60" friendlyPos="x" id="arc_1_8" lane="1_0" length="11.36" pos="90.88" />
	<laneAreaDetector file="e2output.xml" freq="60" friendlyPos="x" id="arc_1_9" lane="1_0" length="11.36" pos="102.24" />
	<laneAreaDetector file="e2output.xml" freq="60" friendlyPos="x" id="arc_1_10" lane="1_0" length="11.36" pos="113.6" />
	<laneAreaDetector file="e2output.xml" freq="60" friendlyPos="x" id="arc_1_11" lane="1_0" length="11.36" pos="124.96" />
	<laneAreaDetector file="e2output.xml" freq="60" friendlyPos="x" id="arc_1_12" lane="1_0" length="11.36" pos="136.32" />
	<laneAreaDetector file="e2output.xml" freq="60" friendlyPos="x" id="arc_1_13" lane="1_0" length="11.36" pos="147.68" />
	<laneAreaDetector file="e2output.xml" freq="60" friendlyPos="x" id="arc_1_14" lane="1_0" length="11.36" pos="159.04" />
	<laneAreaDetector file="e2output.xml" freq="60" friendlyPos="x" id="arc_1_15" lane="1_0" length="11.36" pos="170.39999999999998" />
	<laneAreaDetector file="e2output.xml" freq="60" friendlyPos="x" id="arc_1_16" lane="1_0" length="11.36" pos="181.76" />
	<laneAreaDetector file="e2output.xml" freq="60" friendlyPos="x" id="arc_1_17" lane="1_0" length="11.36" pos="193.12" />
	<laneAreaDetector file="e2output.xml" freq="60" friendlyPos="x" id="arc_1_18" lane="1_0" length="11.36" pos="204.48" />
	<laneAreaDetector file="e2output.xml" freq="60" friendlyPos="x" id="arc_1_19" lane="1_0" length="11.36" pos="215.83999999999997" />
	<laneAreaDetector file="e2output.xml" freq="60" friendlyPos="x" id="arc_1_20" lane="1_0" length="11.36" pos="227.2" />
	<laneAreaDetector file="e2output.xml" freq="60" friendlyPos="x" id="arc_1_21" lane="1_0" length="11.36" pos="238.56" />
	<laneAreaDetector file="e2output.xml" freq="60" friendlyPos="x" id="arc_1_22" lane="1_0" length="11.36" pos="249.92" />
	<laneAreaDetector file="e2output.xml" freq="60" friendlyPos="x" id="arc_1_23" lane="1_0" length="11.36" pos="261.28" />
	<laneAreaDetector file="e2output.xml" freq="60" friendlyPos="x" id="arc_1_24" lane="1_0" length="11.36" pos="272.64" />
	<laneAreaDetector file="e2output.xml" freq="60" friendlyPos="x" id="arc_1_25" lane="1_0" length="11.36" pos="284.0" />
	<laneAreaDetector file="e2output.xml" freq="60" friendlyPos="x" id="arc_1_26" lane="1_0" length="11.36" pos="295.36" />
	<laneAreaDetector file="e2output.xml" freq="60" friendlyPos="x" id="arc_1_27" lane="1_0" length="11.36" pos="306.71999999999997" />
	<laneAreaDetector file="e2output.xml" freq="60" friendlyPos="x" id="arc_1_28" lane="1_0" length="11.36" pos="318.08" />
	<laneAreaDetector file="e2output.xml" freq="60" friendlyPos="x" id="arc_1_29" lane="1_0" length="11.36" pos="329.44" />
	<laneAreaDetector file="e2output.xml" freq="60" friendlyPos="x" id="arc_1_30" lane="1_0" length="11.36" pos="340.79999999999995" />
	<laneAreaDetector file="e2output.xml" freq="60" friendlyPos="x" id="arc_1_31" lane="1_0" length="11.36" pos="352.15999999999997" />
	<laneAreaDetector file="e2output.xml" freq="60" friendlyPos="x" id="arc_1_32" lane="1_0" length="11.36" pos="363.52" />
	<laneAreaDetector file="e2output.xml" freq="60" friendlyPos="x" id="arc_1_33" lane="1_0" length="11.36" pos="374.88" />
	<laneAreaDetector file="e2output.xml" freq="60" friendlyPos="x" id="arc_1_34" lane="1_0" length="11.36" pos="386.24" />
	<laneAreaDetector file="e2output.xml" freq="60" friendlyPos="x" id="arc_1_35" lane="1_0" length="11.36" pos="397.59999999999997" />
	<laneAreaDetector file="e2output.xml" freq="60" friendlyPos="x" id="arc_1_36" lane="1_0" length="11.36" pos="408.96" />
	<laneAreaDetector file="e2output.xml" freq="60" friendlyPos="x" id="arc_1_37" lane="1_0" length="11.36" pos="420.32" />
	<laneAreaDetector file="e2output.xml" freq="60" friendlyPos="x" id="arc_1_38" lane="1_0" length="11.36" pos="431.67999999999995" />
	<laneAreaDetector file="e2output.xml" freq="60" friendlyPos="x" id="arc_1_39" lane="1_0" length="11.36" pos="443.03999999999996" />
	<laneAreaDetector file="e2output.xml" freq="60" friendlyPos="x" id="arc_1_40" lane="1_0" length="11.36" pos="454.4" />
	<laneAreaDetector file="e2output.xml" freq="60" friendlyPos="x" id="arc_1_41" lane="1_0" length="11.36" pos="465.76" />
	<laneAreaDetector file="e2output.xml" freq="60" friendlyPos="x" id="arc_1_42" lane="1_0" length="11.36" pos="477.12" />
	<laneAreaDetector file="e2output.xml" freq="60" friendlyPos="x" id="arc_1_43" lane="1_0" length="11.36" pos="488.47999999999996" />
	<laneAreaDetector file="e2output.xml" freq="60" friendlyPos="x" id="arc_1_44" lane="1_0" length="11.36" pos="499.84" />
	<laneAreaDetector file="e2output.xml" freq="60" friendlyPos="x" id="arc_1_45" lane="1_0" length="11.36" pos="511.2" />
	<laneAreaDetector file="e2output.xml" freq="60" friendlyPos="x" id="arc_1_46" lane="1_0" length="11.36" pos="522.56" />
	<laneAreaDetector file="e2output.xml" freq="60" friendlyPos="x" id="arc_1_47" lane="1_0" length="11.36" pos="533.92" />
	<laneAreaDetector file="e2output.xml" freq="60" friendlyPos="x" id="arc_1_48" lane="1_0" length="11.36" pos="545.28" />
	<laneAreaDetector file="e2output.xml" freq="60" friendlyPos="x" id="arc_1_49" lane="1_0" length="11.36" pos="556.64" />
	<laneAreaDetector file="e2output.xml" freq="60" friendlyPos="x" id="arc_1_50" lane="1_0" length="11.36" pos="568.0" />
	<laneAreaDetector file="e2output.xml" freq="60" friendlyPos="x" id="arc_1_51" lane="1_0" length="11.36" pos="579.36" />
	<laneAreaDetector file="e2output.xml" freq="60" friendlyPos="x" id="arc_1_52" lane="1_0" length="11.36" pos="590.72" />
	<laneAreaDetector file="e2output.xml" freq="60" friendlyPos="x" id="arc_1_53" lane="1_0" length="11.36" pos="602.0799999999999" />
	<laneAreaDetector file="e2output.xml" freq="60" friendlyPos="x" id="arc_1_54" lane="1_0" length="11.36" pos="613.4399999999999" />
	<laneAreaDetector file="e2output.xml" freq="60" friendlyPos="x" id="arc_1_55" lane="1_0" length="11.36" pos="624.8" />
	<laneAreaDetector file="e2output.xml" freq="60" friendlyPos="x" id="arc_1_56" lane="1_0" length="11.36" pos="636.16" />
	<laneAreaDetector file="e2output.xml" freq="60" friendlyPos="x" id="arc_1_57" lane="1_0" length="11.36" pos="647.52" />
	<laneAreaDetector file="e2output.xml" freq="60" friendlyPos="x" id="arc_1_58" lane="1_0" length="11.36" pos="658.88" />
	<laneAreaDetector file="e2output.xml" freq="60" friendlyPos="x" id="arc_1_59" lane="1_0" length="11.36" pos="670.24" />
	<laneAreaDetector file="e2output.xml" freq="60" friendlyPos="x" id="arc_1_60" lane="1_0" length="11.36" pos="681.5999999999999" />
	<laneAreaDetector file="e2output.xml" freq="60" friendlyPos="x" id="arc_1_61" lane="1_0" length="11.36" pos="692.9599999999999" />
	<laneAreaDetector file="e2output.xml" freq="60" friendlyPos="x" id="arc_1_62" lane="1_0" length="11.36" pos="704.3199999999999" />
	<laneAreaDetector file="e2output.xml" freq="60" friendlyPos="x" id="arc_1_63" lane="1_0" length="11.36" pos="715.68" />
	<laneAreaDetector file="e2output.xml" freq="60" friendlyPos="x" id="arc_1_64" lane="1_0" length="11.36" pos="727.04" />
	<laneAreaDetector file="e2output.xml" freq="60" friendlyPos="x" id="arc_1_65" lane="1_0" length="11.36" pos="738.4" />
	<laneAreaDetector file="e2output.xml" freq="60" friendlyPos="x" id="arc_1_66" lane="1_0" length="11.36" pos="749.76" />
	<laneAreaDetector file="e2output.xml" freq="60" friendlyPos="x" id="arc_1_67" lane="1_0" length="11.36" pos="761.12" />
	<laneAreaDetector file="e2output.xml" freq="60" friendlyPos="x" id="arc_1_68" lane="1_0" length="11.36" pos="772.48" />
	<laneAreaDetector file="e2output.xml" freq="60" friendlyPos="x" id="arc_1_69" lane="1_0" length="11.36" pos="783.8399999999999" />
	<laneAreaDetector file="e2output.xml" freq="60" friendlyPos="x" id="arc_1_70" lane="1_0" length="11.36" pos="795.1999999999999" />
	<laneAreaDetector file="e2output.xml" freq="60" friendlyPos="x" id="arc_1_71" lane="1_0" length="11.36" pos="806.56" />
	<laneAreaDetector file="e2output.xml" freq="60" friendlyPos="x" id="arc_1_72" lane="1_0" length="11.36" pos="817.92" />
	<laneAreaDetector file="e2output.xml" freq="60" friendlyPos="x" id="arc_1_73" lane="1_0" length="11.36" pos="829.28" />
	<laneAreaDetector file="e2output.xml" freq="60" friendlyPos="x" id="arc_1_74" lane="1_0" length="11.36" pos="840.64" />
	<laneAreaDetector file="e2output.xml" freq="60" friendlyPos="x" id="arc_1_75" lane="1_0" length="11.36" pos="852.0" />
	<laneAreaDetector file="e2output.xml" freq="60" friendlyPos="x" id="arc_1_76" lane="1_0" length="11.36" pos="863.3599999999999" />
	<laneAreaDetector file="e2output.xml" freq="60" friendlyPos="x" id="arc_1_77" lane="1_0" length="11.36" pos="874.7199999999999" />
	<laneAreaDetector file="e2output.xml" freq="60" friendlyPos="x" id="arc_1_78" lane="1_0" length="11.36" pos="886.0799999999999" />
	<laneAreaDetector file="e2output.xml" freq="60" friendlyPos="x" id="arc_1_79" lane="1_0" length="11.36" pos="897.4399999999999" />
	<laneAreaDetector file="e2output.xml" freq="60" friendlyPos="x" id="arc_1_80" lane="1_0" length="11.36" pos="908.8" />
	<laneAreaDetector file="e2output.xml" freq="60" friendlyPos="x" id="arc_1_81" lane="1_0" length="11.36" pos="920.16" />
	<laneAreaDetector file="e2output.xml" freq="60" friendlyPos="x" id="arc_1_82" lane="1_0" length="11.36" pos="931.52" />
	<laneAreaDetector file="e2output.xml" freq="60" friendlyPos="x" id="arc_1_83" lane="1_0" length="11.36" pos="942.88" />
	<laneAreaDetector file="e2output.xml" freq="60" friendlyPos="x" id="arc_1_84" lane="1_0" length="11.36" pos="954.24" />
	<laneAreaDetector file="e2output.xml" freq="60" friendlyPos="x" id="arc_1_85" lane="1_0" length="11.36" pos="965.5999999999999" />
	<laneAreaDetector file="e2output.xml" freq="60" friendlyPos="x" id="arc_1_86" lane="1_0" length="11.36" pos="976.9599999999999" />
	<laneAreaDetector file="e2output.xml" freq="60" friendlyPos="x" id="arc_1_87" lane="1_0" length="11.36" pos="988.3199999999999" />
	<laneAreaDetector file="e2output.xml" freq="60" friendlyPos="x" id="arc_1_88" lane="1_0" length="11.36" pos="999.68" />
	<laneAreaDetector file="e2output.xml" freq="60" friendlyPos="x" id="arc_1_89" lane="1_0" length="11.36" pos="1011.04" />
	<laneAreaDetector file="e2output.xml" freq="60" friendlyPos="x" id="arc_1_90" lane="1_0" length="11.36" pos="1022.4" />
	<laneAreaDetector file="e2output.xml" freq="60" friendlyPos="x" id="arc_1_91" lane="1_0" length="11.36" pos="1033.76" />
	<laneAreaDetector file="e2output.xml" freq="60" friendlyPos="x" id="arc_1_92" lane="1_0" length="11.36" pos="1045.12" />
	<laneAreaDetector file="e2output.xml" freq="60" friendlyPos="x" id="arc_1_93" lane="1_0" length="11.36" pos="1056.48" />
	<laneAreaDetector file="e2output.xml" freq="60" friendlyPos="x" id="arc_1_94" lane="1_0" length="11.36" pos="1067.84" />
	<laneAreaDetector file="e2output.xml" freq="60" friendlyPos="x" id="arc_1_95" lane="1_0" length="11.36" pos="1079.2" />
	<laneAreaDetector file="e2output.xml" freq="60" friendlyPos="x" id="arc_1_96" lane="1_0" length="11.36" pos="1090.56" />
	<laneAreaDetector file="e2output.xml" freq="60" friendlyPos="x" id="arc_1_97" lane="1_0" length="11.36" pos="1101.9199999999998" />
	<laneAreaDetector file="e2output.xml" freq="60" friendlyPos="x" id="arc_1_98" lane="1_0" length="11.36" pos="1113.28" />
	<laneAreaDetector file="e2output.xml" freq="60" friendlyPos="x" id="arc_1_99" lane="1_0" length="11.36" pos="1124.6399999999999" />
	<laneAreaDetector file="e2output.xml" freq="60" friendlyPos="x" id="arc_2_0" lane="1_1" length="11.36" pos="0.0" />
	<laneAreaDetector file="e2output.xml" freq="60" friendlyPos="x" id="arc_2_1" lane="1_1" length="11.36" pos="11.36" />
	<laneAreaDetector file="e2output.xml" freq="60" friendlyPos="x" id="arc_2_2" lane="1_1" length="11.36" pos="22.72" />
	<laneAreaDetector file="e2output.xml" freq="60" friendlyPos="x" id="arc_2_3" lane="1_1" length="11.36" pos="34.08" />
	<laneAreaDetector file="e2output.xml" freq="60" friendlyPos="x" id="arc_2_4" lane="1_1" length="11.36" pos="45.44" />
	<laneAreaDetector file="e2output.xml" freq="60" friendlyPos="x" id="arc_2_5" lane="1_1" length="11.36" pos="56.8" />
	<laneAreaDetector file="e2output.xml" freq="60" friendlyPos="x" id="arc_2_6" lane="1_1" length="11.36" pos="68.16" />
	<laneAreaDetector file="e2output.xml" freq="60" friendlyPos="x" id="arc_2_7" lane="1_1" length="11.36" pos="79.52" />
	<laneAreaDetector file="e2output.xml" freq="60" friendlyPos="x" id="arc_2_8" lane="1_1" length="11.36" pos="90.88" />
	<laneAreaDetector file="e2output.xml" freq="60" friendlyPos="x" id="arc_2_9" lane="1_1" length="11.36" pos="102.24" />
	<laneAreaDetector file="e2output.xml" freq="60" friendlyPos="x" id="arc_2_10" lane="1_1" length="11.36" pos="113.6" />
	<laneAreaDetector file="e2output.xml" freq="60" friendlyPos="x" id="arc_2_11" lane="1_1" length="11.36" pos="124.96" />
	<laneAreaDetector file="e2output.xml" freq="60" friendlyPos="x" id="arc_2_12" lane="1_1" length="11.36" pos="136.32" />
	<laneAreaDetector file="e2output.xml" freq="60" friendlyPos="x" id="arc_2_13" lane="1_1" length="11.36" pos="147.68" />
	<laneAreaDetector file="e2output.xml" freq="60" friendlyPos="x" id="arc_2_14" lane="1_1" length="11.36" pos="159.04" />
	<laneAreaDetector file="e2output.xml" freq="60" friendlyPos="x" id="arc_2_15" lane="1_1" length="11.36" pos="170.39999999999998" />
	<laneAreaDetector file="e2output.xml" freq="60" friendlyPos="x" id="arc_2_16" lane="1_1" length="11.36" pos="181.76" />
	<laneAreaDetector file="e2output.xml" freq="60" friendlyPos="x" id="arc_2_17" lane="1_1" length="11.36" pos="193.12" />
	<laneAreaDetector file="e2output.xml" freq="60" friendlyPos="x" id="arc_2_18" lane="1_1" length="11.36" pos="204.48" />
	<laneAreaDetector file="e2output.xml" freq="60" friendlyPos="x" id="arc_2_19" lane="1_1" length="11.36" pos="215.83999999999997" />
	<laneAreaDetector file="e2output.xml" freq="60" friendlyPos="x" id="arc_2_20" lane="1_1" length="11.36" pos="227.2" />
	<laneAreaDetector file="e2output.xml" freq="60" friendlyPos="x" id="arc_2_21" lane="1_1" length="11.36" pos="238.56" />
	<laneAreaDetector file="e2output.xml" freq="60" friendlyPos="x" id="arc_2_22" lane="1_1" length="11.36" pos="249.92" />
	<laneAreaDetector file="e2output.xml" freq="60" friendlyPos="x" id="arc_2_23" lane="1_1" length="11.36" pos="261.28" />
	<laneAreaDetector file="e2output.xml" freq="60" friendlyPos="x" id="arc_2_24" lane="1_1" length="11.36" pos="272.64" />
	<laneAreaDetector file="e2output.xml" freq="60" friendlyPos="x" id="arc_2_25" lane="1_1" length="11.36" pos="284.0" />
	<laneAreaDetector file="e2output.xml" freq="60" friendlyPos="x" id="arc_2_26" lane="1_1" length="11.36" pos="295.36" />
	<laneAreaDetector file="e2output.xml" freq="60" friendlyPos="x" id="arc_2_27" lane="1_1" length="11.36" pos="306.71999999999997" />
	<laneAreaDetector file="e2output.xml" freq="60" friendlyPos="x" id="arc_2_28" lane="1_1" length="11.36" pos="318.08" />
	<laneAreaDetector file="e2output.xml" freq="60" friendlyPos="x" id="arc_2_29" lane="1_1" length="11.36" pos="329.44" />
	<laneAreaDetector file="e2output.xml" freq="60" friendlyPos="x" id="arc_2_30" lane="1_1" length="11.36" pos="340.79999999999995" />
	<laneAreaDetector file="e2output.xml" freq="60" friendlyPos="x" id="arc_2_31" lane="1_1" length="11.36" pos="352.15999999999997" />
	<laneAreaDetector file="e2output.xml" freq="60" friendlyPos="x" id="arc_2_32" lane="1_1" length="11.36" pos="363.52" />
	<laneAreaDetector file="e2output.xml" freq="60" friendlyPos="x" id="arc_2_33" lane="1_1" length="11.36" pos="374.88" />
	<laneAreaDetector file="e2output.xml" freq="60" friendlyPos="x" id="arc_2_34" lane="1_1" length="11.36" pos="386.24" />
	<laneAreaDetector file="e2output.xml" freq="60" friendlyPos="x" id="arc_2_35" lane="1_1" length="11.36" pos="397.59999999999997" />
	<laneAreaDetector file="e2output.xml" freq="60" friendlyPos="x" id="arc_2_36" lane="1_1" length="11.36" pos="408.96" />
	<laneAreaDetector file="e2output.xml" freq="60" friendlyPos="x" id="arc_2_37" lane="1_1" length="11.36" pos="420.32" />
	<laneAreaDetector file="e2output.xml" freq="60" friendlyPos="x" id="arc_2_38" lane="1_1" length="11.36" pos="431.67999999999995" />
	<laneAreaDetector file="e2output.xml" freq="60" friendlyPos="x" id="arc_2_39" lane="1_1" length="11.36" pos="443.03999999999996" />
	<laneAreaDetector file="e2output.xml" freq="60" friendlyPos="x" id="arc_2_40" lane="1_1" length="11.36" pos="454.4" />
	<laneAreaDetector file="e2output.xml" freq="60" friendlyPos="x" id="arc_2_41" lane="1_1" length="11.36" pos="465.76" />
	<laneAreaDetector file="e2output.xml" freq="60" friendlyPos="x" id="arc_2_42" lane="1_1" length="11.36" pos="477.12" />
	<laneAreaDetector file="e2output.xml" freq="60" friendlyPos="x" id="arc_2_43" lane="1_1" length="11.36" pos="488.47999999999996" />
	<laneAreaDetector file="e2output.xml" freq="60" friendlyPos="x" id="arc_2_44" lane="1_1" length="11.36" pos="499.84" />
	<laneAreaDetector file="e2output.xml" freq="60" friendlyPos="x" id="arc_2_45" lane="1_1" length="11.36" pos="511.2" />
	<laneAreaDetector file="e2output.xml" freq="60" friendlyPos="x" id="arc_2_46" lane="1_1" length="11.36" pos="522.56" />
	<laneAreaDetector file="e2output.xml" freq="60" friendlyPos="x" id="arc_2_47" lane="1_1" length="11.36" pos="533.92" />
	<laneAreaDetector file="e2output.xml" freq="60" friendlyPos="x" id="arc_2_48" lane="1_1" length="11.36" pos="545.28" />
	<laneAreaDetector file="e2output.xml" freq="60" friendlyPos="x" id="arc_2_49" lane="1_1" length="11.36" pos="556.64" />
	<laneAreaDetector file="e2output.xml" freq="60" friendlyPos="x" id="arc_2_50" lane="1_1" length="11.36" pos="568.0" />
	<laneAreaDetector file="e2output.xml" freq="60" friendlyPos="x" id="arc_2_51" lane="1_1" length="11.36" pos="579.36" />
	<laneAreaDetector file="e2output.xml" freq="60" friendlyPos="x" id="arc_2_52" lane="1_1" length="11.36" pos="590.72" />
	<laneAreaDetector file="e2output.xml" freq="60" friendlyPos="x" id="arc_2_53" lane="1_1" length="11.36" pos="602.0799999999999" />
	<laneAreaDetector file="e2output.xml" freq="60" friendlyPos="x" id="arc_2_54" lane="1_1" length="11.36" pos="613.4399999999999" />
	<laneAreaDetector file="e2output.xml" freq="60" friendlyPos="x" id="arc_2_55" lane="1_1" length="11.36" pos="624.8" />
	<laneAreaDetector file="e2output.xml" freq="60" friendlyPos="x" id="arc_2_56" lane="1_1" length="11.36" pos="636.16" />
	<laneAreaDetector file="e2output.xml" freq="60" friendlyPos="x" id="arc_2_57" lane="1_1" length="11.36" pos="647.52" />
	<laneAreaDetector file="e2output.xml" freq="60" friendlyPos="x" id="arc_2_58" lane="1_1" length="11.36" pos="658.88" />
	<laneAreaDetector file="e2output.xml" freq="60" friendlyPos="x" id="arc_2_59" lane="1_1" length="11.36" pos="670.24" />
	<laneAreaDetector file="e2output.xml" freq="60" friendlyPos="x" id="arc_2_60" lane="1_1" length="11.36" pos="681.5999999999999" />
	<laneAreaDetector file="e2output.xml" freq="60" friendlyPos="x" id="arc_2_61" lane="1_1" length="11.36" pos="692.9599999999999" />
	<laneAreaDetector file="e2output.xml" freq="60" friendlyPos="x" id="arc_2_62" lane="1_1" length="11.36" pos="704.3199999999999" />
	<laneAreaDetector file="e2output.xml" freq="60" friendlyPos="x" id="arc_2_63" lane="1_1" length="11.36" pos="715.68" />
	<laneAreaDetector file="e2output.xml" freq="60" friendlyPos="x" id="arc_2_64" lane="1_1" length="11.36" pos="727.04" />
	<laneAreaDetector file="e2output.xml" freq="60" friendlyPos="x" id="arc_2_65" lane="1_1" length="11.36" pos="738.4" />
	<laneAreaDetector file="e2output.xml" freq="60" friendlyPos="x" id="arc_2_66" lane="1_1" length="11.36" pos="749.76" />
	<laneAreaDetector file="e2output.xml" freq="60" friendlyPos="x" id="arc_2_67" lane="1_1" length="11.36" pos="761.12" />
	<laneAreaDetector file="e2output.xml" freq="60" friendlyPos="x" id="arc_2_68" lane="1_1" length="11.36" pos="772.48" />
	<laneAreaDetector file="e2output.xml" freq="60" friendlyPos="x" id="arc_2_69" lane="1_1" length="11.36" pos="783.8399999999999" />
	<laneAreaDetector file="e2output.xml" freq="60" friendlyPos="x" id="arc_2_70" lane="1_1" length="11.36" pos="795.1999999999999" />
	<laneAreaDetector file="e2output.xml" freq="60" friendlyPos="x" id="arc_2_71" lane="1_1" length="11.36" pos="806.56" />
	<laneAreaDetector file="e2output.xml" freq="60" friendlyPos="x" id="arc_2_72" lane="1_1" length="11.36" pos="817.92" />
	<laneAreaDetector file="e2output.xml" freq="60" friendlyPos="x" id="arc_2_73" lane="1_1" length="11.36" pos="829.28" />
	<laneAreaDetector file="e2output.xml" freq="60" friendlyPos="x" id="arc_2_74" lane="1_1" length="11.36" pos="840.64" />
	<laneAreaDetector file="e2output.xml" freq="60" friendlyPos="x" id="arc_2_75" lane="1_1" length="11.36" pos="852.0" />
	<laneAreaDetector file="e2output.xml" freq="60" friendlyPos="x" id="arc_2_76" lane="1_1" length="11.36" pos="863.3599999999999" />
	<laneAreaDetector file="e2output.xml" freq="60" friendlyPos="x" id="arc_2_77" lane="1_1" length="11.36" pos="874.7199999999999" />
	<laneAreaDetector file="e2output.xml" freq="60" friendlyPos="x" id="arc_2_78" lane="1_1" length="11.36" pos="886.0799999999999" />
	<laneAreaDetector file="e2output.xml" freq="60" friendlyPos="x" id="arc_2_79" lane="1_1" length="11.36" pos="897.4399999999999" />
	<laneAreaDetector file="e2output.xml" freq="60" friendlyPos="x" id="arc_2_80" lane="1_1" length="11.36" pos="908.8" />
	<laneAreaDetector file="e2output.xml" freq="60" friendlyPos="x" id="arc_2_81" lane="1_1" length="11.36" pos="920.16" />
	<laneAreaDetector file="e2output.xml" freq="60" friendlyPos="x" id="arc_2_82" lane="1_1" length="11.36" pos="931.52" />
	<laneAreaDetector file="e2output.xml" freq="60" friendlyPos="x" id="arc_2_83" lane="1_1" length="11.36" pos="942.88" />
	<laneAreaDetector file="e2output.xml" freq="60" friendlyPos="x" id="arc_2_84" lane="1_1" length="11.36" pos="954.24" />
	<laneAreaDetector file="e2output.xml" freq="60" friendlyPos="x" id="arc_2_85" lane="1_1" length="11.36" pos="965.5999999999999" />
	<laneAreaDetector file="e2output.xml" freq="60" friendlyPos="x" id="arc_2_86" lane="1_1" length="11.36" pos="976.9599999999999" />
	<laneAreaDetector file="e2output.xml" freq="60" friendlyPos="x" id="arc_2_87" lane="1_1" length="11.36" pos="988.3199999999999" />
	<laneAreaDetector file="e2output.xml" freq="60" friendlyPos="x" id="arc_2_88" lane="1_1" length="11.36" pos="999.68" />
	<laneAreaDetector file="e2output.xml" freq="60" friendlyPos="x" id="arc_2_89" lane="1_1" length="11.36" pos="1011.04" />
	<laneAreaDetector file="e2output.xml" freq="60" friendlyPos="x" id="arc_2_90" lane="1_1" length="11.36" pos="1022.4" />
	<laneAreaDetector file="e2output.xml" freq="60" friendlyPos="x" id="arc_2_91" lane="1_1" length="11.36" pos="1033.76" />
	<laneAreaDetector file="e2output.xml" freq="60" friendlyPos="x" id="arc_2_92" lane="1_1" length="11.36" pos="1045.12" />
	<laneAreaDetector file="e2output.xml" freq="60" friendlyPos="x" id="arc_2_93" lane="1_1" length="11.36" pos="1056.48" />
	<laneAreaDetector file="e2output.xml" freq="60" friendlyPos="x" id="arc_2_94" lane="1_1" length="11.36" pos="1067.84" />
	<laneAreaDetector file="e2output.xml" freq="60" friendlyPos="x" id="arc_2_95" lane="1_1" length="11.36" pos="1079.2" />
	<laneAreaDetector file="e2output.xml" freq="60" friendlyPos="x" id="arc_2_96" lane="1_1" length="11.36" pos="1090.56" />
	<laneAreaDetector file="e2output.xml" freq="60" friendlyPos="x" id="arc_2_97" lane="1_1" length="11.36" pos="1101.9199999999998" />
	<laneAreaDetector file="e2output.xml" freq="60" friendlyPos="x" id="arc_2_98" lane="1_1" length="11.36" pos="1113.28" />
	<laneAreaDetector file="e2output.xml" freq="60" friendlyPos="x" id="arc_2_99" lane="1_1" length="11.36" pos="1124.6399999999999" />
	<laneAreaDetector file="e2output.xml" freq="60" friendlyPos="x" id="arc_3_0" lane="1_2" length="11.36" pos="0.0" />
	<laneAreaDetector file="e2output.xml" freq="60" friendlyPos="x" id="arc_3_1" lane="1_2" length="11.36" pos="11.36" />
	<laneAreaDetector file="e2output.xml" freq="60" friendlyPos="x" id="arc_3_2" lane="1_2" length="11.36" pos="22.72" />
	<laneAreaDetector file="e2output.xml" freq="60" friendlyPos="x" id="arc_3_3" lane="1_2" length="11.36" pos="34.08" />
	<laneAreaDetector file="e2output.xml" freq="60" friendlyPos="x" id="arc_3_4" lane="1_2" length="11.36" pos="45.44" />
	<laneAreaDetector file="e2output.xml" freq="60" friendlyPos="x" id="arc_3_5" lane="1_2" length="11.36" pos="56.8" />
	<laneAreaDetector file="e2output.xml" freq="60" friendlyPos="x" id="arc_3_6" lane="1_2" length="11.36" pos="68.16" />
	<laneAreaDetector file="e2output.xml" freq="60" friendlyPos="x" id="arc_3_7" lane="1_2" length="11.36" pos="79.52" />
	<laneAreaDetector file="e2output.xml" freq="60" friendlyPos="x" id="arc_3_8" lane="1_2" length="11.36" pos="90.88" />
	<laneAreaDetector file="e2output.xml" freq="60" friendlyPos="x" id="arc_3_9" lane="1_2" length="11.36" pos="102.24" />
	<laneAreaDetector file="e2output.xml" freq="60" friendlyPos="x" id="arc_3_10" lane="1_2" length="11.36" pos="113.6" />
	<laneAreaDetector file="e2output.xml" freq="60" friendlyPos="x" id="arc_3_11" lane="1_2" length="11.36" pos="124.96" />
	<laneAreaDetector file="e2output.xml" freq="60" friendlyPos="x" id="arc_3_12" lane="1_2" length="11.36" pos="136.32" />
	<laneAreaDetector file="e2output.xml" freq="60" friendlyPos="x" id="arc_3_13" lane="1_2" length="11.36" pos="147.68" />
	<laneAreaDetector file="e2output.xml" freq="60" friendlyPos="x" id="arc_3_14" lane="1_2" length="11.36" pos="159.04" />
	<laneAreaDetector file="e2output.xml" freq="60" friendlyPos="x" id="arc_3_15" lane="1_2" length="11.36" pos="170.39999999999998" />
	<laneAreaDetector file="e2output.xml" freq="60" friendlyPos="x" id="arc_3_16" lane="1_2" length="11.36" pos="181.76" />
	<laneAreaDetector file="e2output.xml" freq="60" friendlyPos="x" id="arc_3_17" lane="1_2" length="11.36" pos="193.12" />
	<laneAreaDetector file="e2output.xml" freq="60" friendlyPos="x" id="arc_3_18" lane="1_2" length="11.36" pos="204.48" />
	<laneAreaDetector file="e2output.xml" freq="60" friendlyPos="x" id="arc_3_19" lane="1_2" length="11.36" pos="215.83999999999997" />
	<laneAreaDetector file="e2output.xml" freq="60" friendlyPos="x" id="arc_3_20" lane="1_2" length="11.36" pos="227.2" />
	<laneAreaDetector file="e2output.xml" freq="60" friendlyPos="x" id="arc_3_21" lane="1_2" length="11.36" pos="238.56" />
	<laneAreaDetector file="e2output.xml" freq="60" friendlyPos="x" id="arc_3_22" lane="1_2" length="11.36" pos="249.92" />
	<laneAreaDetector file="e2output.xml" freq="60" friendlyPos="x" id="arc_3_23" lane="1_2" length="11.36" pos="261.28" />
	<laneAreaDetector file="e2output.xml" freq="60" friendlyPos="x" id="arc_3_24" lane="1_2" length="11.36" pos="272.64" />
	<laneAreaDetector file="e2output.xml" freq="60" friendlyPos="x" id="arc_3_25" lane="1_2" length="11.36" pos="284.0" />
	<laneAreaDetector file="e2output.xml" freq="60" friendlyPos="x" id="arc_3_26" lane="1_2" length="11.36" pos="295.36" />
	<laneAreaDetector file="e2output.xml" freq="60" friendlyPos="x" id="arc_3_27" lane="1_2" length="11.36" pos="306.71999999999997" />
	<laneAreaDetector file="e2output.xml" freq="60" friendlyPos="x" id="arc_3_28" lane="1_2" length="11.36" pos="318.08" />
	<laneAreaDetector file="e2output.xml" freq="60" friendlyPos="x" id="arc_3_29" lane="1_2" length="11.36" pos="329.44" />
	<laneAreaDetector file="e2output.xml" freq="60" friendlyPos="x" id="arc_3_30" lane="1_2" length="11.36" pos="340.79999999999995" />
	<laneAreaDetector file="e2output.xml" freq="60" friendlyPos="x" id="arc_3_31" lane="1_2" length="11.36" pos="352.15999999999997" />
	<laneAreaDetector file="e2output.xml" freq="60" friendlyPos="x" id="arc_3_32" lane="1_2" length="11.36" pos="363.52" />
	<laneAreaDetector file="e2output.xml" freq="60" friendlyPos="x" id="arc_3_33" lane="1_2" length="11.36" pos="374.88" />
	<laneAreaDetector file="e2output.xml" freq="60" friendlyPos="x" id="arc_3_34" lane="1_2" length="11.36" pos="386.24" />
	<laneAreaDetector file="e2output.xml" freq="60" friendlyPos="x" id="arc_3_35" lane="1_2" length="11.36" pos="397.59999999999997" />
	<laneAreaDetector file="e2output.xml" freq="60" friendlyPos="x" id="arc_3_36" lane="1_2" length="11.36" pos="408.96" />
	<laneAreaDetector file="e2output.xml" freq="60" friendlyPos="x" id="arc_3_37" lane="1_2" length="11.36" pos="420.32" />
	<laneAreaDetector file="e2output.xml" freq="60" friendlyPos="x" id="arc_3_38" lane="1_2" length="11.36" pos="431.67999999999995" />
	<laneAreaDetector file="e2output.xml" freq="60" friendlyPos="x" id="arc_3_39" lane="1_2" length="11.36" pos="443.03999999999996" />
	<laneAreaDetector file="e2output.xml" freq="60" friendlyPos="x" id="arc_3_40" lane="1_2" length="11.36" pos="454.4" />
	<laneAreaDetector file="e2output.xml" freq="60" friendlyPos="x" id="arc_3_41" lane="1_2" length="11.36" pos="465.76" />